../../databases/Vina/outputs/7WN5_JGL/7WN5_JGL1.pdb
 OpenBabel08242616453D

 40 44  0  0  0  0  0  0  0  0999 V2000
  -18.8000   -9.5050  -14.3850 C   0  0  0  0  0  0  0  0  0  0  0  0
  -19.9860  -10.0250  -14.9070 C   0  0  0  0  0  0  0  0  0  0  0  0
  -21.0940   -9.2080  -15.0700 C   0  0  0  0  0  0  0  0  0  0  0  0
  -21.0330   -7.8710  -14.6940 C   0  0  0  0  0  0  0  0  0  0  0  0
  -19.8160   -7.3650  -14.1700 C   0  0  0  0  0  0  0  0  0  0  0  0
  -18.6880   -8.1670  -13.9850 C   0  0  0  0  0  0  0  0  0  0  0  0
  -17.4810   -7.6450  -13.4410 C   0  0  0  0  0  0  0  0  0  0  0  0
  -16.6760   -6.7810  -14.1330 C   0  0  0  0  0  0  0  0  0  0  0  0
  -15.4950   -6.2580  -13.5680 N   0  0  0  0  0  0  0  0  0  0  0  0
  -14.7180   -5.3380  -14.4470 C   0  0  0  0  0  0  0  0  0  0  0  0
  -15.1340   -6.5560  -12.2980 C   0  0  0  0  0  0  0  0  0  0  0  0
  -15.9470   -7.4220  -11.5900 C   0  0  0  0  0  0  0  0  0  0  0  0
  -14.0530   -6.0680  -11.8600 O   0  0  0  0  0  0  0  0  0  0  0  0
  -15.9250   -7.9880  -10.3250 C   0  0  0  0  0  0  0  0  0  0  0  0
  -17.0960   -7.9110  -12.1760 C   0  0  0  0  0  0  0  0  0  0  0  0
  -17.0170   -8.8010  -10.1380 C   0  0  0  0  0  0  0  0  0  0  0  0
  -17.7190   -8.7440  -11.2670 O   0  0  0  0  0  0  0  0  0  0  0  0
  -17.4630   -9.5970   -9.0860 C   0  0  0  0  0  0  0  0  0  0  0  0
  -18.6790  -10.1680   -8.9940 C   0  0  0  0  0  0  0  0  0  0  0  0
  -18.7570  -10.8590   -7.8370 N   0  0  0  0  0  0  0  0  0  0  0  0
  -17.5810  -10.7420   -7.2340 C   0  0  0  0  0  0  0  0  0  0  0  0
  -19.5660  -11.3760   -7.4920 H   0  0  0  0  0  0  0  0  0  0  0  0
  -16.8010   -9.9810   -8.0000 N   0  0  0  0  0  0  0  0  0  0  0  0
  -15.8360   -9.7300   -7.7850 H   0  0  0  0  0  0  0  0  0  0  0  0
  -17.6750  -10.2340  -14.2110 O   0  0  0  0  0  0  0  0  0  0  0  0
  -17.5230  -11.5690  -14.2340 C   0  0  0  0  0  0  0  0  0  0  0  0
  -17.1370  -12.2450  -15.3720 C   0  0  0  0  0  0  0  0  0  0  0  0
  -16.9840  -13.6200  -15.3020 C   0  0  0  0  0  0  0  0  0  0  0  0
  -17.1860  -14.3000  -14.0990 C   0  0  0  0  0  0  0  0  0  0  0  0
  -17.0530  -15.6580  -13.9940 F   0  0  0  0  0  0  0  0  0  0  0  0
  -17.5500  -13.6090  -12.9670 C   0  0  0  0  0  0  0  0  0  0  0  0
  -17.6900  -12.2360  -13.0280 C   0  0  0  0  0  0  0  0  0  0  0  0
  -18.0260  -11.6530  -11.9370 F   0  0  0  0  0  0  0  0  0  0  0  0
  -22.1470   -7.1740  -14.8880 N   0  0  0  0  0  0  0  0  0  0  0  0
  -23.0320   -7.5710  -14.5720 H   0  0  0  0  0  0  0  0  0  0  0  0
  -22.1630   -5.7100  -15.6070 S   0  0  0  0  0  0  0  0  0  0  0  0
  -21.8500   -4.6070  -14.6300 O   0  0  0  0  0  0  0  0  0  0  0  0
  -23.5430   -5.4540  -16.1950 O   0  0  0  0  0  0  0  0  0  0  0  0
  -20.9450   -5.6130  -16.9610 C   0  0  0  0  0  0  0  0  0  0  0  0
  -21.4420   -6.5660  -18.0630 C   0  0  0  0  0  0  0  0  0  0  0  0
  1  2  2  0  0  0  0
  1 25  1  0  0  0  0
  1  6  1  0  0  0  0
  2  3  1  0  0  0  0
  3  4  2  0  0  0  0
  4 34  1  0  0  0  0
  4  5  1  0  0  0  0
  5  6  2  0  0  0  0
  6  7  1  0  0  0  0
  7  8  2  0  0  0  0
  7 15  1  0  0  0  0
  8  9  1  0  0  0  0
  9 10  1  0  0  0  0
  9 11  1  0  0  0  0
 11 13  2  0  0  0  0
 11 12  1  0  0  0  0
 12 15  2  0  0  0  0
 12 14  1  0  0  0  0
 14 16  2  0  0  0  0
 15 17  1  0  0  0  0
 16 17  1  0  0  0  0
 16 18  1  0  0  0  0
 18 19  2  0  0  0  0
 18 23  1  0  0  0  0
 19 20  1  0  0  0  0
 20 22  1  0  0  0  0
 20 21  1  0  0  0  0
 21 23  1  0  0  0  0
 23 24  1  0  0  0  0
 25 26  1  0  0  0  0
 26 27  2  0  0  0  0
 26 32  1  0  0  0  0
 27 28  1  0  0  0  0
 28 29  2  0  0  0  0
 29 30  1  0  0  0  0
 29 31  1  0  0  0  0
 31 32  2  0  0  0  0
 32 33  1  0  0  0  0
 34 36  1  0  0  0  0
 34 35  1  0  0  0  0
 36 39  1  0  0  0  0
 36 38  2  0  0  0  0
 36 37  2  0  0  0  0
 39 40  1  0  0  0  0
M  END
>  <MODEL>
1

>  <REMARK>
 VINA RESULT:    -9.371      0.000      0.000
 INTER + INTRA:         -15.166
 INTER:                 -13.206
 INTRA:                  -1.960
 UNBOUND:                -1.960
  7 active torsions:
  status: ('A' for Active; 'I' for Inactive)
    1  A    between atoms: C_8  and  O_9 
    2  A    between atoms: O_9  and  C_10 
    3  A    between atoms: C_13  and  N_14 
    4  A    between atoms: N_14  and  S_16 
    5  A    between atoms: S_16  and  C_19 
    6  A    between atoms: C_22  and  C_23 
    7  A    between atoms: C_33  and  C_34 

>  <COMPND>
    /home/daniil/Downloads/ml_docking_review/databases/Vina/outputs/7WN5_JGL/7WN5_JGL.pdbqt 

>  <AUTHOR>
    GENERATED BY OPEN BABEL 3.2.1

>  <MASTER>
        0    0    0    0    0    0    0    0   40    0   40    0

$$$$
