../../databases/Vina/outputs/7PA4_C/7PA4_C1.pdb
 OpenBabel08242616453D

 26 27  0  0  1  0  0  0  0  0999 V2000
   10.8570   14.8550   36.8480 C   0  0  1  0  0  0  0  0  0  0  0  0
   11.3980   14.8810   35.5120 O   0  0  0  0  0  0  0  0  0  0  0  0
   11.5760   16.0220   37.5030 C   0  0  2  0  0  0  0  0  0  0  0  0
   13.0060   15.8580   36.9740 C   0  0  2  0  0  0  0  0  0  0  0  0
   12.7470   15.3090   35.5640 C   0  0  2  0  0  0  0  0  0  0  0  0
   13.0090   16.2510   34.4700 N   0  0  0  0  0  0  0  0  0  0  0  0
   12.0500   17.1310   34.0400 C   0  0  0  0  0  0  0  0  0  0  0  0
   12.2980   17.9770   33.0330 C   0  0  0  0  0  0  0  0  0  0  0  0
   13.6160   17.9640   32.4710 C   0  0  0  0  0  0  0  0  0  0  0  0
   14.5480   17.1070   32.8800 N   0  0  0  0  0  0  0  0  0  0  0  0
   14.2950   16.2700   33.8990 C   0  0  0  0  0  0  0  0  0  0  0  0
   15.4570   17.0850   32.4180 H   0  0  0  0  0  0  0  0  0  0  0  0
   15.1560   15.4840   34.3150 O   0  0  0  0  0  0  0  0  0  0  0  0
   13.9210   18.7550   31.4510 N   0  0  0  0  0  0  0  0  0  0  0  0
   13.3630   19.6010   31.3310 H   0  0  0  0  0  0  0  0  0  0  0  0
   14.7280   18.5520   30.8620 H   0  0  0  0  0  0  0  0  0  0  0  0
   13.7220   14.9140   37.7430 O   0  0  0  0  0  0  0  0  0  0  0  0
   14.4060   14.5050   37.2250 H   0  0  0  0  0  0  0  0  0  0  0  0
    9.3520   14.9490   36.7900 C   0  0  0  0  0  0  0  0  0  0  0  0
    8.8570   14.9890   38.1270 O   0  0  0  0  0  0  0  0  0  0  0  0
    8.6260   13.6370   38.9770 P   0  0  0  0  0  0  0  0  0  0  0  0
    9.8010   13.6070   39.9470 O   0  0  0  0  0  0  0  0  0  0  0  0
    8.5580   12.4540   38.0210 O   0  0  0  0  0  0  0  0  0  0  0  0
    7.2880   13.9460   39.5900 O   0  0  0  0  0  0  0  0  0  0  0  0
   11.4680   15.9690   38.9260 O   0  0  0  0  0  0  0  0  0  0  0  0
   11.9300   16.6900   39.3370 H   0  0  0  0  0  0  0  0  0  0  0  0
  1  2  1  0  0  0  0
  1 19  1  6  0  0  0
  1  3  1  0  0  0  0
  2  5  1  0  0  0  0
  3  4  1  0  0  0  0
  3 25  1  1  0  0  0
  4  5  1  0  0  0  0
  4 17  1  1  0  0  0
  5  6  1  6  0  0  0
  6 11  1  0  0  0  0
  6  7  1  0  0  0  0
  7  8  1  0  0  0  0
  8  9  2  0  0  0  0
  9 14  1  0  0  0  0
  9 10  1  0  0  0  0
 10 12  1  0  0  0  0
 10 11  1  0  0  0  0
 11 13  2  0  0  0  0
 14 16  1  0  0  0  0
 14 15  1  0  0  0  0
 17 18  1  0  0  0  0
 19 20  1  0  0  0  0
 20 21  1  0  0  0  0
 21 23  2  0  0  0  0
 21 24  1  0  0  0  0
 21 22  1  0  0  0  0
 25 26  1  0  0  0  0
M  END
>  <MODEL>
1

>  <REMARK>
 VINA RESULT:    -6.696      0.000      0.000
 INTER + INTRA:          -9.851
 INTER:                  -8.849
 INTRA:                  -1.002
 UNBOUND:                -1.002
  7 active torsions:
  status: ('A' for Active; 'I' for Inactive)
    1  A    between atoms: P_2  and  O_5 
    2  A    between atoms: O_5  and  C_6 
    3  A    between atoms: C_6  and  C_7 
    4  A    between atoms: C_9  and  O_10 
    5  A    between atoms: C_12  and  O_13 
    6  A    between atoms: C_15  and  N_16 
    7  A    between atoms: C_21  and  N_22 

>  <COMPND>
    /home/daniil/Downloads/ml_docking_review/databases/Vina/outputs/7PA4_C/7PA4_C.pdbqt 

>  <AUTHOR>
    GENERATED BY OPEN BABEL 3.2.1

>  <MASTER>
        0    0    0    0    0    0    0    0   26    0   26    0

$$$$
