../../databases/Vina/outputs/7JNB_A2G/7JNB_A2G1.pdb
 OpenBabel08242616453D

 20 20  0  0  1  0  0  0  0  0999 V2000
   63.5170    8.8540  109.0320 O   0  0  0  0  0  0  0  0  0  0  0  0
   64.2090    8.0450  108.0660 C   0  0  1  0  0  0  0  0  0  0  0  0
   65.7160    7.9390  108.3360 C   0  0  1  0  0  0  0  0  0  0  0  0
   65.9660    7.6000  109.8070 C   0  0  2  0  0  0  0  0  0  0  0  0
   65.2260    8.5730  110.7280 C   0  0  2  0  0  0  0  0  0  0  0  0
   63.7300    8.4980  110.4000 C   0  0  1  0  0  0  0  0  0  0  0  0
   66.3590    6.9370  107.4910 N   0  0  0  0  0  0  0  0  0  0  0  0
   67.2500    7.2890  106.5660 C   0  0  0  0  0  0  0  0  0  0  0  0
   67.5090    8.4640  106.3660 O   0  0  0  0  0  0  0  0  0  0  0  0
   67.9060    6.1840  105.8050 C   0  0  0  0  0  0  0  0  0  0  0  0
   66.1230    5.9510  107.6120 H   0  0  0  0  0  0  0  0  0  0  0  0
   63.6500    6.7420  108.1210 O   0  0  0  0  0  0  0  0  0  0  0  0
   62.7080    6.8310  108.0320 H   0  0  0  0  0  0  0  0  0  0  0  0
   67.3780    7.5160  110.0280 O   0  0  0  0  0  0  0  0  0  0  0  0
   67.8730    8.2730  109.7390 H   0  0  0  0  0  0  0  0  0  0  0  0
   65.6760    9.9180  110.5260 O   0  0  0  0  0  0  0  0  0  0  0  0
   66.0670   10.2340  111.3320 H   0  0  0  0  0  0  0  0  0  0  0  0
   62.8930    9.4280  111.2600 C   0  0  0  0  0  0  0  0  0  0  0  0
   61.9680   10.1830  110.4520 O   0  0  0  0  0  0  0  0  0  0  0  0
   62.4310   10.7080  109.8100 H   0  0  0  0  0  0  0  0  0  0  0  0
  1  2  1  0  0  0  0
  1  6  1  0  0  0  0
  2 12  1  1  0  0  0
  2  3  1  0  0  0  0
  3  7  1  6  0  0  0
  3  4  1  0  0  0  0
  4 14  1  1  0  0  0
  4  5  1  0  0  0  0
  5  6  1  0  0  0  0
  5 16  1  6  0  0  0
  6 18  1  1  0  0  0
  7  8  1  0  0  0  0
  7 11  1  0  0  0  0
  8 10  1  0  0  0  0
  8  9  2  0  0  0  0
 12 13  1  0  0  0  0
 14 15  1  0  0  0  0
 16 17  1  0  0  0  0
 18 19  1  0  0  0  0
 19 20  1  0  0  0  0
M  END
>  <MODEL>
1

>  <REMARK>
 VINA RESULT:    -5.006      0.000      0.000
 INTER + INTRA:          -6.444
 INTER:                  -6.176
 INTRA:                  -0.267
 UNBOUND:                -0.267
  6 active torsions:
  status: ('A' for Active; 'I' for Inactive)
    1  A    between atoms: C_2  and  O_3 
    2  A    between atoms: C_5  and  N_6 
       I    between atoms: N_6  and  C_18 
    3  A    between atoms: C_8  and  O_9 
    4  A    between atoms: C_11  and  O_12 
    5  A    between atoms: C_14  and  C_15 
    6  A    between atoms: C_15  and  O_16 

>  <COMPND>
    /home/daniil/Downloads/ml_docking_review/databases/Vina/outputs/7JNB_A2G/7JNB_A2G.pdbqt 

>  <AUTHOR>
    GENERATED BY OPEN BABEL 3.2.1

>  <MASTER>
        0    0    0    0    0    0    0    0   20    0   20    0

$$$$
