../../databases/Vina/outputs/5SIS_JSM/5SIS_JSM1.pdb
 OpenBabel08242616453D

 36 39  0  0  1  0  0  0  0  0999 V2000
   35.7320  105.0040   62.6460 C   0  0  0  0  0  0  0  0  0  0  0  0
   35.3560  106.3180   62.7680 N   0  0  0  0  0  0  0  0  0  0  0  0
   35.5600  106.7860   63.6510 H   0  0  0  0  0  0  0  0  0  0  0  0
   35.5310  104.3480   61.6290 O   0  0  0  0  0  0  0  0  0  0  0  0
   36.3730  104.3980   63.8140 C   0  0  1  0  0  0  0  0  0  0  0  0
   35.8830  103.5260   64.7940 C   0  0  0  0  0  0  0  0  0  0  0  0
   36.9820  103.2830   65.6310 C   0  0  0  0  0  0  0  0  0  0  0  0
   38.0680  103.9140   65.2210 N   0  0  0  0  0  0  0  0  0  0  0  0
   37.6830  104.6000   64.1060 N   0  0  0  0  0  0  0  0  0  0  0  0
   38.9940  103.8920   65.6470 H   0  0  0  0  0  0  0  0  0  0  0  0
   38.6790  105.4030   63.4080 C   0  0  0  0  0  0  0  0  0  0  0  0
   34.4950  103.0300   64.9120 C   0  0  0  0  0  0  0  0  0  0  0  0
   33.6660  103.6630   65.5630 O   0  0  0  0  0  0  0  0  0  0  0  0
   34.1330  101.8080   64.2900 N   0  0  0  0  0  0  0  0  0  0  0  0
   35.0220  100.9750   63.4910 C   0  0  0  0  0  0  0  0  0  0  0  0
   32.7590  101.3310   64.4510 C   0  0  0  0  0  0  0  0  0  0  0  0
   32.5850  100.4910   65.7050 C   0  0  0  0  0  0  0  0  0  0  0  0
   31.9020  101.2860   66.7870 N   0  0  0  0  0  0  0  0  0  0  0  0
   30.7010  102.0340   66.3990 C   0  0  0  0  0  0  0  0  0  0  0  0
   32.2570  101.3040   67.7430 H   0  0  0  0  0  0  0  0  0  0  0  0
   34.7100  107.0660   61.7680 C   0  0  0  0  0  0  0  0  0  0  0  0
   35.6140  107.9310   61.0350 C   0  0  0  0  0  0  0  0  0  0  0  0
   35.1300  108.7100   60.0560 C   0  0  0  0  0  0  0  0  0  0  0  0
   33.7900  108.6970   59.7400 N   0  0  0  0  0  0  0  0  0  0  0  0
   32.8920  107.8870   60.4250 C   0  0  0  0  0  0  0  0  0  0  0  0
   33.0720  109.4070   58.8030 C   0  0  0  0  0  0  0  0  0  0  0  0
   31.6600  108.0500   59.9490 N   0  0  0  0  0  0  0  0  0  0  0  0
   33.3750  107.0600   61.4660 C   0  0  0  0  0  0  0  0  0  0  0  0
   31.7740  108.9890   58.9280 C   0  0  0  0  0  0  0  0  0  0  0  0
   30.8100  107.5850   60.2660 H   0  0  0  0  0  0  0  0  0  0  0  0
   30.5740  109.4910   58.2390 C   0  0  0  0  0  0  0  0  0  0  0  0
   29.4370  109.8280   58.9650 C   0  0  0  0  0  0  0  0  0  0  0  0
   28.2800  110.2240   58.3180 C   0  0  0  0  0  0  0  0  0  0  0  0
   28.2220  110.2400   56.9440 C   0  0  0  0  0  0  0  0  0  0  0  0
   29.3280  109.8680   56.2090 C   0  0  0  0  0  0  0  0  0  0  0  0
   30.4920  109.4750   56.8500 C   0  0  0  0  0  0  0  0  0  0  0  0
  1  4  2  0  0  0  0
  1  2  1  0  0  0  0
  2 21  1  0  0  0  0
  2  3  1  0  0  0  0
  5  1  1  6  0  0  0
  5  9  1  0  0  0  0
  5  6  1  0  0  0  0
  6 12  1  0  0  0  0
  6  7  2  0  0  0  0
  7  8  1  0  0  0  0
  8  9  1  0  0  0  0
  8 10  1  0  0  0  0
  9 11  1  0  0  0  0
 12 14  1  0  0  0  0
 12 13  2  0  0  0  0
 14 15  1  0  0  0  0
 14 16  1  0  0  0  0
 16 17  1  0  0  0  0
 17 18  1  0  0  0  0
 18 19  1  0  0  0  0
 18 20  1  0  0  0  0
 21 22  2  0  0  0  0
 21 28  1  0  0  0  0
 22 23  1  0  0  0  0
 23 24  1  0  0  0  0
 24 26  1  0  0  0  0
 24 25  1  0  0  0  0
 25 27  1  0  0  0  0
 25 28  2  0  0  0  0
 26 29  2  0  0  0  0
 27 29  1  0  0  0  0
 27 30  1  0  0  0  0
 29 31  1  0  0  0  0
 31 36  2  0  0  0  0
 31 32  1  0  0  0  0
 32 33  2  0  0  0  0
 33 34  1  0  0  0  0
 34 35  2  0  0  0  0
 35 36  1  0  0  0  0
M  END
>  <MODEL>
1

>  <REMARK>
 VINA RESULT:    -8.910      0.000      0.000
 INTER + INTRA:         -13.847
 INTER:                 -12.556
 INTRA:                  -1.292
 UNBOUND:                -1.292
  7 active torsions:
  status: ('A' for Active; 'I' for Inactive)
    1  A    between atoms: C_4  and  C_19 
    2  A    between atoms: C_6  and  C_10 
    3  A    between atoms: C_6  and  N_28 
    4  A    between atoms: C_10  and  N_31 
    5  A    between atoms: C_11  and  C_18 
    6  A    between atoms: C_12  and  C_16 
       I    between atoms: C_16  and  N_26 
       I    between atoms: C_18  and  N_28 
    7  A    between atoms: C_25  and  N_26 

>  <COMPND>
    /home/daniil/Downloads/ml_docking_review/databases/Vina/outputs/5SIS_JSM/5SIS_JSM.pdbqt 

>  <AUTHOR>
    GENERATED BY OPEN BABEL 3.2.1

>  <MASTER>
        0    0    0    0    0    0    0    0   36    0   36    0

$$$$
