../../databases/Vina/outputs/8F8E_XJI/8F8E_XJI1.pdb
 OpenBabel08242612033D

 34 36  0  0  1  0  0  0  0  0999 V2000
  -21.2530  -20.8080    0.9690 N   0  0  0  0  0  0  0  0  0  0  0  0
  -21.2530  -20.9370    1.9810 H   0  0  0  0  0  0  0  0  0  0  0  0
  -21.5940  -19.6230    0.4510 C   0  0  0  0  0  0  0  0  0  0  0  0
  -21.4420  -19.3600   -0.7310 O   0  0  0  0  0  0  0  0  0  0  0  0
  -20.8810  -21.9220    0.0940 C   0  0  2  0  0  0  0  0  0  0  0  0
  -21.4890  -23.2400    0.5010 C   0  0  0  0  0  0  0  0  0  0  0  0
  -22.0560  -23.4000    1.7570 C   0  0  0  0  0  0  0  0  0  0  0  0
  -22.4560  -24.6500    2.1800 C   0  0  0  0  0  0  0  0  0  0  0  0
  -23.1670  -24.8300    3.7480 Cl  0  0  0  0  0  0  0  0  0  0  0  0
  -22.2970  -25.7440    1.3390 C   0  0  0  0  0  0  0  0  0  0  0  0
  -21.7810  -25.6020    0.0790 C   0  0  0  0  0  0  0  0  0  0  0  0
  -22.5690  -26.9910    1.7990 F   0  0  0  0  0  0  0  0  0  0  0  0
  -21.3710  -24.3440   -0.3340 C   0  0  0  0  0  0  0  0  0  0  0  0
  -19.3680  -22.0840    0.0640 C   0  0  0  0  0  0  0  0  0  0  0  0
  -18.8280  -21.4860   -1.2070 C   0  0  0  0  0  0  0  0  0  0  0  0
  -17.7750  -20.6980   -1.0710 N   0  0  0  0  0  0  0  0  0  0  0  0
  -17.2690  -20.5770   -0.1940 H   0  0  0  0  0  0  0  0  0  0  0  0
  -17.4090  -20.2920   -1.9330 H   0  0  0  0  0  0  0  0  0  0  0  0
  -19.4380  -21.6320   -2.2650 O   0  0  0  0  0  0  0  0  0  0  0  0
  -22.2080  -18.6380    1.3680 C   0  0  0  0  0  0  0  0  0  0  0  0
  -23.2900  -17.7620    1.1040 C   0  0  1  0  0  0  0  0  0  0  0  0
  -23.6570  -17.0860    2.2040 N   0  0  0  0  0  0  0  0  0  0  0  0
  -22.7940  -17.5210    3.1480 N   0  0  0  0  0  0  0  0  0  0  0  0
  -24.4100  -16.4050    2.3040 H   0  0  0  0  0  0  0  0  0  0  0  0
  -21.9250  -18.4340    2.6980 C   0  0  0  0  0  0  0  0  0  0  0  0
  -22.8040  -17.1860    4.1110 H   0  0  0  0  0  0  0  0  0  0  0  0
  -24.0060  -17.5200   -0.1530 C   0  0  0  0  0  0  0  0  0  0  0  0
  -25.2640  -18.0770   -0.3510 C   0  0  0  0  0  0  0  0  0  0  0  0
  -25.9400  -17.9060   -1.5420 C   0  0  0  0  0  0  0  0  0  0  0  0
  -25.3580  -17.1730   -2.5410 C   0  0  0  0  0  0  0  0  0  0  0  0
  -26.2030  -16.9830   -4.0430 Cl  0  0  0  0  0  0  0  0  0  0  0  0
  -24.1200  -16.5860   -2.3890 C   0  0  0  0  0  0  0  0  0  0  0  0
  -23.4770  -16.7720   -1.1900 C   0  0  0  0  0  0  0  0  0  0  0  0
  -22.2690  -16.2050   -1.0310 F   0  0  0  0  0  0  0  0  0  0  0  0
  1  5  1  0  0  0  0
  1  3  1  0  0  0  0
  1  2  1  0  0  0  0
  3  4  2  0  0  0  0
  3 20  1  0  0  0  0
  5 14  1  1  0  0  0
  5  6  1  0  0  0  0
  6 13  2  0  0  0  0
  6  7  1  0  0  0  0
  7  8  2  0  0  0  0
  8 10  1  0  0  0  0
  8  9  1  0  0  0  0
 10 11  2  0  0  0  0
 10 12  1  0  0  0  0
 11 13  1  0  0  0  0
 14 15  1  0  0  0  0
 15 19  2  0  0  0  0
 15 16  1  0  0  0  0
 16 18  1  0  0  0  0
 16 17  1  0  0  0  0
 20 21  1  0  0  0  0
 20 25  2  0  0  0  0
 21 27  1  6  0  0  0
 21 22  1  0  0  0  0
 22 24  1  0  0  0  0
 22 23  1  0  0  0  0
 23 25  1  0  0  0  0
 23 26  1  0  0  0  0
 27 33  2  0  0  0  0
 27 28  1  0  0  0  0
 28 29  2  0  0  0  0
 29 30  1  0  0  0  0
 30 31  1  0  0  0  0
 30 32  2  0  0  0  0
 32 33  1  0  0  0  0
 33 34  1  0  0  0  0
M  END
>  <MODEL>
1

>  <REMARK>
 VINA RESULT:   -11.356      0.000      0.000
 INTER + INTRA:         -16.689
 INTER:                 -15.339
 INTRA:                  -1.349
 UNBOUND:                -1.349
  6 active torsions:
  status: ('A' for Active; 'I' for Inactive)
       I    between atoms: N_5  and  C_29 
    1  A    between atoms: N_5  and  C_20 
    2  A    between atoms: C_9  and  C_29 
       I    between atoms: N_12  and  C_18 
    3  A    between atoms: C_15  and  C_16 
    4  A    between atoms: C_18  and  C_19 
    5  A    between atoms: C_19  and  C_20 
    6  A    between atoms: C_20  and  C_21 

>  <COMPND>
    /home/daniil/Downloads/ml_docking_review/databases/Vina/outputs/8F8E_XJI/8F8E_XJI.pdbqt 

>  <AUTHOR>
    GENERATED BY OPEN BABEL 3.2.1

>  <MASTER>
        0    0    0    0    0    0    0    0   34    0   34    0

$$$$
