../../databases/Vina/outputs/7Z2O_IAJ/7Z2O_IAJ1.pdb
 OpenBabel08242616453D

 16 18  0  0  1  0  0  0  0  0999 V2000
   -5.1880   14.8850   10.2510 C   0  0  0  0  0  0  0  0  0  0  0  0
   -6.3500   14.7540    9.5140 C   0  0  0  0  0  0  0  0  0  0  0  0
   -7.5630   14.8600   10.1730 C   0  0  0  0  0  0  0  0  0  0  0  0
   -9.8500   14.9710   11.0360 C   0  0  1  0  0  0  0  0  0  0  0  0
   -9.6660   15.3210   13.1760 C   0  0  0  0  0  0  0  0  0  0  0  0
   -7.6120   15.0540   11.5610 C   0  0  0  0  0  0  0  0  0  0  0  0
  -11.0750   15.0220   11.5050 N   0  0  0  0  0  0  0  0  0  0  0  0
  -11.9410   14.9110   10.9790 H   0  0  0  0  0  0  0  0  0  0  0  0
  -10.9440   15.2650   12.8870 N   0  0  0  0  0  0  0  0  0  0  0  0
  -11.7110   15.3770   13.5500 H   0  0  0  0  0  0  0  0  0  0  0  0
   -5.2270   15.1010   11.6310 C   0  0  0  0  0  0  0  0  0  0  0  0
   -8.9340   15.1270   12.0410 N   0  0  0  0  0  0  0  0  0  0  0  0
   -6.4480   15.1790   12.2970 C   0  0  0  0  0  0  0  0  0  0  0  0
   -9.1780   14.7140    9.4630 S   0  0  0  0  0  0  0  0  0  0  0  0
   -6.6890   15.4170   13.6290 O   0  0  0  0  0  0  0  0  0  0  0  0
   -6.2950   16.6990   14.1310 C   0  0  0  0  0  0  0  0  0  0  0  0
  1  2  2  0  0  0  0
  1 11  1  0  0  0  0
  2  3  1  0  0  0  0
  3 14  1  0  0  0  0
  3  6  2  0  0  0  0
  4 14  1  1  0  0  0
  4  7  1  0  0  0  0
  4 12  1  0  0  0  0
  5 12  1  0  0  0  0
  5  9  1  0  0  0  0
  6 12  1  0  0  0  0
  6 13  1  0  0  0  0
  7  8  1  0  0  0  0
  7  9  1  0  0  0  0
  9 10  1  0  0  0  0
 11 13  2  0  0  0  0
 13 15  1  0  0  0  0
 15 16  1  0  0  0  0
M  END
>  <MODEL>
1

>  <REMARK>
 VINA RESULT:    -6.845      0.000      0.000
 INTER + INTRA:          -7.345
 INTER:                  -7.245
 INTRA:                  -0.100
 UNBOUND:                -0.100
  1 active torsions:
  status: ('A' for Active; 'I' for Inactive)
    1  A    between atoms: O_14  and  C_15 

>  <COMPND>
    /home/daniil/Downloads/ml_docking_review/databases/Vina/outputs/7Z2O_IAJ/7Z2O_IAJ.pdbqt 

>  <AUTHOR>
    GENERATED BY OPEN BABEL 3.2.1

>  <MASTER>
        0    0    0    0    0    0    0    0   16    0   16    0

$$$$
