../../databases/Vina/outputs/6ZCY_QF8/6ZCY_QF81.pdb
 OpenBabel08242616453D

 42 46  0  0  1  0  0  0  0  0999 V2000
    3.0110   -1.3070   15.4490 C   0  0  1  0  0  0  0  0  0  0  0  0
    3.8040   -1.4910   16.5170 N   0  0  0  0  0  0  0  0  0  0  0  0
    3.6450   -2.2430   17.1880 H   0  0  0  0  0  0  0  0  0  0  0  0
    4.8230   -0.6190   16.6450 C   0  0  0  0  0  0  0  0  0  0  0  0
    5.0760    0.4200   15.7650 C   0  0  0  0  0  0  0  0  0  0  0  0
    3.1200   -0.3340   14.5330 N   0  0  0  0  0  0  0  0  0  0  0  0
    2.4610   -0.2400   13.7590 H   0  0  0  0  0  0  0  0  0  0  0  0
    4.1500    0.5070   14.7000 C   0  0  0  0  0  0  0  0  0  0  0  0
    2.0000   -2.2130   15.2980 N   0  0  0  0  0  0  0  0  0  0  0  0
    2.2710   -3.1520   15.5890 H   0  0  0  0  0  0  0  0  0  0  0  0
    0.6660   -2.1570   14.8340 C   0  0  0  0  0  0  0  0  0  0  0  0
    0.2010   -1.2080   13.9140 C   0  0  0  0  0  0  0  0  0  0  0  0
   -1.1520   -1.2010   13.5750 C   0  0  0  0  0  0  0  0  0  0  0  0
   -2.0020   -2.1800   14.1010 C   0  0  0  0  0  0  0  0  0  0  0  0
   -1.9960   -0.4130   12.7180 C   0  0  0  0  0  0  0  0  0  0  0  0
   -3.2450   -1.9270   13.6050 N   0  0  0  0  0  0  0  0  0  0  0  0
   -1.5400   -3.1450   14.9880 C   0  0  0  0  0  0  0  0  0  0  0  0
   -3.2420   -0.8780   12.7180 N   0  0  0  0  0  0  0  0  0  0  0  0
   -4.4750   -2.6710   13.8380 C   0  0  0  0  0  0  0  0  0  0  0  0
   -4.0300   -0.5290   12.1730 H   0  0  0  0  0  0  0  0  0  0  0  0
   -0.1970   -3.1360   15.3350 C   0  0  0  0  0  0  0  0  0  0  0  0
   -1.5940    0.7570   11.8830 C   0  0  0  0  0  0  0  0  0  0  0  0
   -0.6460    0.6640   11.1060 O   0  0  0  0  0  0  0  0  0  0  0  0
   -2.3480    1.8510   12.0080 N   0  0  0  0  0  0  0  0  0  0  0  0
   -2.0800    3.0640   11.2460 C   0  0  0  0  0  0  0  0  0  0  0  0
   -3.1350    1.8370   12.6560 H   0  0  0  0  0  0  0  0  0  0  0  0
    4.1740    1.6080   13.8010 N   0  0  0  0  0  0  0  0  0  0  0  0
    5.3180    2.3230   13.6300 N   0  0  0  0  0  0  0  0  0  0  0  0
    5.0130    3.3020   12.8030 C   0  0  1  0  0  0  0  0  0  0  0  0
    6.2260    2.1390   14.0550 H   0  0  0  0  0  0  0  0  0  0  0  0
    3.6170    3.2910   12.5370 C   0  0  0  0  0  0  0  0  0  0  0  0
    6.0780    4.2490   12.3540 C   0  0  0  0  0  0  0  0  0  0  0  0
    3.1190    2.1720   13.1590 C   0  0  0  0  0  0  0  0  0  0  0  0
    3.0010    4.1880   11.7560 N   0  0  0  0  0  0  0  0  0  0  0  0
    3.5270    4.8340   11.1670 H   0  0  0  0  0  0  0  0  0  0  0  0
    1.5340    4.1960   11.7860 C   0  0  1  0  0  0  0  0  0  0  0  0
    0.8490    4.6170   13.1060 C   0  0  0  0  0  0  0  0  0  0  0  0
    0.8730    6.0880   13.0910 N   0  0  0  0  0  4  0  0  0  0  0  0
    0.5790    6.4620   11.6920 C   0  0  0  0  0  0  0  0  0  0  0  0
    0.2490    6.5180   13.7730 H   0  0  0  0  0  0  0  0  0  0  0  0
    1.7370    6.4890   13.4530 H   0  0  0  0  0  0  0  0  0  0  0  0
    0.9560    5.2010   10.7860 C   0  0  0  0  0  0  0  0  0  0  0  0
  1  6  1  0  0  0  0
  1  9  1  6  0  0  0
  1  2  1  0  0  0  0
  2  4  1  0  0  0  0
  2  3  1  0  0  0  0
  4  5  1  0  0  0  0
  5  8  2  0  0  0  0
  6  7  1  0  0  0  0
  6  8  1  0  0  0  0
  8 27  1  0  0  0  0
  9 11  1  0  0  0  0
  9 10  1  0  0  0  0
 11 12  1  0  0  0  0
 11 21  2  0  0  0  0
 12 13  1  0  0  0  0
 13 15  2  0  0  0  0
 13 14  1  0  0  0  0
 14 16  1  0  0  0  0
 14 17  2  0  0  0  0
 15 22  1  0  0  0  0
 15 18  1  0  0  0  0
 16 18  1  0  0  0  0
 16 19  1  0  0  0  0
 17 21  1  0  0  0  0
 18 20  1  0  0  0  0
 22 23  2  0  0  0  0
 22 24  1  0  0  0  0
 24 25  1  0  0  0  0
 24 26  1  0  0  0  0
 27 33  1  0  0  0  0
 27 28  1  0  0  0  0
 28 29  1  0  0  0  0
 28 30  1  0  0  0  0
 29 32  1  1  0  0  0
 29 31  1  0  0  0  0
 31 34  1  0  0  0  0
 31 33  2  0  0  0  0
 34 35  1  0  0  0  0
 36 34  1  1  0  0  0
 36 42  1  0  0  0  0
 36 37  1  0  0  0  0
 37 38  1  0  0  0  0
 38 39  1  0  0  0  0
 38 41  1  0  0  0  0
 38 40  1  0  0  0  0
 39 42  1  0  0  0  0
M  END
>  <MODEL>
1

>  <REMARK>
 VINA RESULT:   -10.519      0.000      0.000
 INTER + INTRA:         -15.143
 INTER:                 -14.208
 INTRA:                  -0.935
 UNBOUND:                -0.935
  6 active torsions:
  status: ('A' for Active; 'I' for Inactive)
    1  A    between atoms: C_2  and  N_37 
    2  A    between atoms: C_5  and  N_24 
    3  A    between atoms: C_6  and  N_24 
    4  A    between atoms: C_12  and  C_14 
       I    between atoms: C_14  and  N_19 
    5  A    between atoms: C_32  and  N_33 
    6  A    between atoms: N_37  and  C_39 

>  <COMPND>
    /home/daniil/Downloads/ml_docking_review/databases/Vina/outputs/6ZCY_QF8/6ZCY_QF8.pdbqt 

>  <AUTHOR>
    GENERATED BY OPEN BABEL 3.2.1

>  <MASTER>
        0    0    0    0    0    0    0    0   42    0   42    0

$$$$
