../../databases/Vina/outputs/7O0N_CDP/7O0N_CDP1.pdb
 OpenBabel08242616453D

 28 29  0  0  1  0  0  0  0  0999 V2000
   11.5520   20.2640   28.5800 C   0  0  1  0  0  0  0  0  0  0  0  0
   11.2280   19.4530   29.7950 O   0  0  0  0  0  0  0  0  0  0  0  0
   12.6530   19.3860   27.8200 C   0  0  2  0  0  0  0  0  0  0  0  0
   12.5280   18.2010   28.2820 C   0  0  2  0  0  0  0  0  0  0  0  0
   12.1280   18.4960   29.8430 C   0  0  2  0  0  0  0  0  0  0  0  0
   10.3810   20.4530   27.8350 C   0  0  0  0  0  0  0  0  0  0  0  0
   10.1810   21.8220   27.6330 O   0  0  0  0  0  0  0  0  0  0  0  0
    8.6380   22.4120   27.6960 P   0  0  2  0  0  0  0  0  0  0  0  0
    7.7760   21.4730   28.4740 O   0  0  0  0  0  0  0  0  0  0  0  0
    8.1890   22.5490   26.2810 O   0  0  0  0  0  0  0  0  0  0  0  0
    8.6700   23.7880   28.5480 O   0  0  0  0  0  0  0  0  0  0  0  0
    9.2800   24.0700   30.0290 P   0  0  0  0  0  0  0  0  0  0  0  0
    8.5370   25.2460   30.6260 O   0  0  0  0  0  0  0  0  0  0  0  0
    9.2930   22.8940   30.9320 O   0  0  0  0  0  0  0  0  0  0  0  0
   10.7110   24.5270   29.7970 O   0  0  0  0  0  0  0  0  0  0  0  0
   13.9940   20.0080   28.1170 O   0  0  0  0  0  0  0  0  0  0  0  0
   14.7190   19.3990   28.0410 H   0  0  0  0  0  0  0  0  0  0  0  0
   13.7840   17.4160   28.2960 O   0  0  0  0  0  0  0  0  0  0  0  0
   14.4220   17.9200   28.7860 H   0  0  0  0  0  0  0  0  0  0  0  0
   11.5100   17.4560   30.5650 N   0  0  0  0  0  0  0  0  0  0  0  0
   10.3940   16.7000   30.0660 C   0  0  0  0  0  0  0  0  0  0  0  0
    9.7440   15.6720   30.8670 C   0  0  0  0  0  0  0  0  0  0  0  0
   10.2500   15.4170   32.2330 C   0  0  0  0  0  0  0  0  0  0  0  0
    9.6430   14.4230   33.0560 N   0  0  0  0  0  0  0  0  0  0  0  0
   11.3480   16.1760   32.7420 N   0  0  0  0  0  0  0  0  0  0  0  0
   11.9960   17.2140   31.9380 C   0  0  0  0  0  0  0  0  0  0  0  0
   11.6870   15.9930   33.6860 H   0  0  0  0  0  0  0  0  0  0  0  0
   12.9060   17.8340   32.3780 O   0  0  0  0  0  0  0  0  0  0  0  0
  1  3  1  0  0  0  0
  1  6  1  6  0  0  0
  1  2  1  0  0  0  0
  2  5  1  0  0  0  0
  3 16  1  1  0  0  0
  3  4  1  0  0  0  0
  4 18  1  1  0  0  0
  4  5  1  0  0  0  0
  5 20  1  6  0  0  0
  6  7  1  0  0  0  0
  7  8  1  0  0  0  0
  8 10  2  6  0  0  0
  8  9  1  0  0  0  0
  8 11  1  0  0  0  0
 11 12  1  0  0  0  0
 12 15  2  0  0  0  0
 12 13  1  0  0  0  0
 12 14  1  0  0  0  0
 16 17  1  0  0  0  0
 18 19  1  0  0  0  0
 20 21  1  0  0  0  0
 20 26  1  0  0  0  0
 21 22  1  0  0  0  0
 22 23  2  0  0  0  0
 23 25  1  0  0  0  0
 23 24  1  0  0  0  0
 25 26  1  0  0  0  0
 25 27  1  0  0  0  0
 26 28  2  0  0  0  0
M  END
>  <MODEL>
1

>  <REMARK>
 VINA RESULT:   -10.280      0.000      0.000
 INTER + INTRA:         -15.349
 INTER:                 -14.487
 INTRA:                  -0.862
 UNBOUND:                -0.862
  8 active torsions:
  status: ('A' for Active; 'I' for Inactive)
    1  A    between atoms: P_2  and  O_5 
    2  A    between atoms: O_5  and  P_6 
    3  A    between atoms: P_6  and  O_9 
    4  A    between atoms: O_9  and  C_10 
    5  A    between atoms: C_10  and  C_11 
    6  A    between atoms: C_13  and  O_14 
    7  A    between atoms: C_16  and  O_17 
    8  A    between atoms: C_19  and  N_20 

>  <COMPND>
    /home/daniil/Downloads/ml_docking_review/databases/Vina/outputs/7O0N_CDP/7O0N_CDP.pdbqt 

>  <AUTHOR>
    GENERATED BY OPEN BABEL 3.2.1

>  <MASTER>
        0    0    0    0    0    0    0    0   28    0   28    0

$$$$
