../../databases/Vina/outputs/7ODX_DGP/7ODX_DGP1.pdb
 OpenBabel08242616453D

 29 31  0  0  1  0  0  0  0  0999 V2000
  -41.8580   30.8000    9.5180 N   0  0  0  0  0  0  0  0  0  0  0  0
  -42.3310   31.0420    8.2510 C   0  0  0  0  0  0  0  0  0  0  0  0
  -41.6860   30.3810    7.3200 N   0  0  0  0  0  0  0  0  0  0  0  0
  -41.8550   30.3910    6.3140 H   0  0  0  0  0  0  0  0  0  0  0  0
  -40.7210   29.6650    8.0130 C   0  0  0  0  0  0  0  0  0  0  0  0
  -39.7210   28.7520    7.5490 C   0  0  0  0  0  0  0  0  0  0  0  0
  -39.5210   28.4090    6.3850 O   0  0  0  0  0  0  0  0  0  0  0  0
  -38.9590   28.2450    8.5860 N   0  0  0  0  0  0  0  0  0  0  0  0
  -38.2180   27.5850    8.3500 H   0  0  0  0  0  0  0  0  0  0  0  0
  -39.1270   28.5630    9.9140 C   0  0  1  0  0  0  0  0  0  0  0  0
  -40.0540   29.4160   10.3560 N   0  0  0  0  0  0  0  0  0  0  0  0
  -40.1740   29.6580   11.3390 H   0  0  0  0  0  0  0  0  0  0  0  0
  -40.8090   29.9190    9.3680 C   0  0  0  0  0  0  0  0  0  0  0  0
  -42.4410   31.2990   10.7690 C   0  0  2  0  0  0  0  0  0  0  0  0
  -43.7580   31.7460   10.4750 O   0  0  0  0  0  0  0  0  0  0  0  0
  -44.0340   32.9780   11.1750 C   0  0  1  0  0  0  0  0  0  0  0  0
  -42.8330   33.2230   12.0890 C   0  0  2  0  0  0  0  0  0  0  0  0
  -41.7090   32.4910   11.3660 C   0  0  0  0  0  0  0  0  0  0  0  0
  -44.3250   34.0630   10.1640 C   0  0  0  0  0  0  0  0  0  0  0  0
  -44.3530   33.5070    8.8290 O   0  0  0  0  0  0  0  0  0  0  0  0
  -44.1580   34.4150    7.4860 P   0  0  0  0  0  0  0  0  0  0  0  0
  -45.0280   35.6330    7.6330 O   0  0  0  0  0  0  0  0  0  0  0  0
  -44.5840   33.5550    6.2680 O   0  0  0  0  0  0  0  0  0  0  0  0
  -42.6620   34.8090    7.3670 O   0  0  0  0  0  0  0  0  0  0  0  0
  -43.0620   32.6320   13.3710 O   0  0  0  0  0  0  0  0  0  0  0  0
  -42.2570   32.2560   13.7060 H   0  0  0  0  0  0  0  0  0  0  0  0
  -38.3170   27.9560   10.7940 N   0  0  0  0  0  0  0  0  0  0  0  0
  -37.4040   28.3630   10.9980 H   0  0  0  0  0  0  0  0  0  0  0  0
  -38.6680   27.1070   11.2380 H   0  0  0  0  0  0  0  0  0  0  0  0
  1  2  1  0  0  0  0
  1 13  1  0  0  0  0
  2  3  1  0  0  0  0
  3  4  1  0  0  0  0
  3  5  1  0  0  0  0
  5  6  1  0  0  0  0
  5 13  2  0  0  0  0
  6  7  2  0  0  0  0
  6  8  1  0  0  0  0
  8  9  1  0  0  0  0
  8 10  1  0  0  0  0
 10 11  1  0  0  0  0
 10 27  1  1  0  0  0
 11 13  1  0  0  0  0
 11 12  1  0  0  0  0
 14  1  1  6  0  0  0
 14 15  1  0  0  0  0
 14 18  1  0  0  0  0
 15 16  1  0  0  0  0
 16 19  1  6  0  0  0
 16 17  1  0  0  0  0
 17 18  1  0  0  0  0
 17 25  1  1  0  0  0
 19 20  1  0  0  0  0
 20 21  1  0  0  0  0
 21 23  2  0  0  0  0
 21 24  1  0  0  0  0
 21 22  1  0  0  0  0
 25 26  1  0  0  0  0
 27 28  1  0  0  0  0
 27 29  1  0  0  0  0
M  END
>  <MODEL>
1

>  <REMARK>
 VINA RESULT:    -9.248      0.000      0.000
 INTER + INTRA:         -12.592
 INTER:                 -11.951
 INTRA:                  -0.641
 UNBOUND:                -0.641
  6 active torsions:
  status: ('A' for Active; 'I' for Inactive)
    1  A    between atoms: P_1  and  O_5 
    2  A    between atoms: O_5  and  C_6 
    3  A    between atoms: C_6  and  C_7 
    4  A    between atoms: C_9  and  O_10 
    5  A    between atoms: C_13  and  N_14 
    6  A    between atoms: C_23  and  N_24 

>  <COMPND>
    /home/daniil/Downloads/ml_docking_review/databases/Vina/outputs/7ODX_DGP/7ODX_DGP.pdbqt 

>  <AUTHOR>
    GENERATED BY OPEN BABEL 3.2.1

>  <MASTER>
        0    0    0    0    0    0    0    0   29    0   29    0

$$$$
