../../databases/Vina/outputs/7AMC_73B/7AMC_73B1.pdb
 OpenBabel08242616453D

 32 35  0  0  1  0  0  0  0  0999 V2000
   38.2080   48.8800   67.8240 C   0  0  0  0  0  0  0  0  0  0  0  0
   38.7340   49.6070   66.5930 C   0  0  1  0  0  0  0  0  0  0  0  0
   38.3130   51.0760   66.5210 C   0  0  0  0  0  0  0  0  0  0  0  0
   39.2070   51.8720   65.6420 C   0  0  2  0  0  0  0  0  0  0  0  0
   40.5750   51.9080   66.3600 C   0  0  0  0  0  0  0  0  0  0  0  0
   41.3210   53.0400   66.6250 C   0  0  0  0  0  0  0  0  0  0  0  0
   42.5120   52.9590   67.3530 C   0  0  0  0  0  0  0  0  0  0  0  0
   42.9280   51.7340   67.8620 C   0  0  0  0  0  0  0  0  0  0  0  0
   42.2010   50.5940   67.6220 C   0  0  0  0  0  0  0  0  0  0  0  0
   41.0420   50.6790   66.8280 C   0  0  0  0  0  0  0  0  0  0  0  0
   40.1970   49.5050   66.5160 N   0  0  0  0  0  0  0  0  0  0  0  0
   40.7430   48.2580   66.0540 C   0  0  0  0  0  0  0  0  0  0  0  0
   42.2580   48.1300   65.8880 C   0  0  0  0  0  0  0  0  0  0  0  0
   39.9860   47.3640   65.8270 O   0  0  0  0  0  0  0  0  0  0  0  0
   38.6860   53.2490   65.4550 N   0  0  0  0  0  0  0  0  0  0  0  0
   39.2400   54.0460   65.7670 H   0  0  0  0  0  0  0  0  0  0  0  0
   37.4240   53.4670   64.8460 C   0  0  0  0  0  0  0  0  0  0  0  0
   36.6520   54.5430   65.2150 C   0  0  0  0  0  0  0  0  0  0  0  0
   35.4050   54.7370   64.6410 C   0  0  0  0  0  0  0  0  0  0  0  0
   34.9520   53.8350   63.7390 C   0  0  0  0  0  0  0  0  0  0  0  0
   35.7020   52.7850   63.3700 C   0  0  0  0  0  0  0  0  0  0  0  0
   33.3740   54.0630   62.9900 Cl  0  0  0  0  0  0  0  0  0  0  0  0
   36.9390   52.5520   63.9230 C   0  0  0  0  0  0  0  0  0  0  0  0
   43.3680   54.2120   67.5660 C   0  0  0  0  0  0  0  0  0  0  0  0
   44.6550   54.2770   66.9690 C   0  0  0  0  0  0  0  0  0  0  0  0
   45.4370   55.3940   67.0970 C   0  0  0  0  0  0  0  0  0  0  0  0
   44.9350   56.4630   67.8390 C   0  0  0  0  0  0  0  0  0  0  0  0
   43.6850   56.4350   68.3880 C   0  0  0  0  0  0  0  0  0  0  0  0
   42.9010   55.3180   68.2400 C   0  0  0  0  0  0  0  0  0  0  0  0
   45.7540   57.7210   68.0390 C   0  0  0  0  0  0  0  0  0  0  0  0
   45.3510   58.7830   67.5290 O   0  0  0  0  0  0  0  0  0  0  0  0
   46.8110   57.6610   68.7020 O   0  0  0  0  0  0  0  0  0  0  0  0
  2  1  1  1  0  0  0
  2 11  1  0  0  0  0
  2  3  1  0  0  0  0
  3  4  1  0  0  0  0
  4 15  1  1  0  0  0
  4  5  1  0  0  0  0
  5  6  2  0  0  0  0
  5 10  1  0  0  0  0
  6  7  1  0  0  0  0
  7 24  1  0  0  0  0
  7  8  2  0  0  0  0
  8  9  1  0  0  0  0
  9 10  2  0  0  0  0
 10 11  1  0  0  0  0
 11 12  1  0  0  0  0
 12 14  2  0  0  0  0
 12 13  1  0  0  0  0
 15 17  1  0  0  0  0
 15 16  1  0  0  0  0
 17 23  2  0  0  0  0
 17 18  1  0  0  0  0
 18 19  2  0  0  0  0
 19 20  1  0  0  0  0
 20 22  1  0  0  0  0
 20 21  2  0  0  0  0
 21 23  1  0  0  0  0
 24 25  2  0  0  0  0
 24 29  1  0  0  0  0
 25 26  1  0  0  0  0
 26 27  2  0  0  0  0
 27 30  1  0  0  0  0
 27 28  1  0  0  0  0
 28 29  2  0  0  0  0
 30 31  2  0  0  0  0
 30 32  1  0  0  0  0
M  END
>  <MODEL>
1

>  <REMARK>
 VINA RESULT:    -9.453      0.000      0.000
 INTER + INTRA:         -12.472
 INTER:                 -11.663
 INTRA:                  -0.809
 UNBOUND:                -0.809
  4 active torsions:
  status: ('A' for Active; 'I' for Inactive)
    1  A    between atoms: C_4  and  N_5 
    2  A    between atoms: N_5  and  C_7 
    3  A    between atoms: C_16  and  C_24 
       I    between atoms: N_20  and  C_21 
    4  A    between atoms: C_27  and  C_30 

>  <COMPND>
    /home/daniil/Downloads/ml_docking_review/databases/Vina/outputs/7AMC_73B/7AMC_73B.pdbqt 

>  <AUTHOR>
    GENERATED BY OPEN BABEL 3.2.1

>  <MASTER>
        0    0    0    0    0    0    0    0   32    0   32    0

$$$$
