../../databases/Vina/outputs/7TXK_LW8/7TXK_LW81.pdb
 OpenBabel08242616453D

 17 17  0  0  1  0  0  0  0  0999 V2000
   30.6520   44.6130   91.4970 C   0  0  0  0  0  0  0  0  0  0  0  0
   30.6360   43.0750   91.6920 C   0  0  0  0  0  0  0  0  0  0  0  0
   31.1460   42.3150   92.7430 C   0  0  0  0  0  0  0  0  0  0  0  0
   30.8880   41.0440   92.4840 N   0  0  0  0  0  0  0  0  0  0  0  0
   30.2320   40.9520   91.3230 C   0  0  0  0  0  0  0  0  0  0  0  0
   31.1490   40.2560   93.0780 H   0  0  0  0  0  0  0  0  0  0  0  0
   29.7170   39.5570   90.6550 S   0  0  0  0  0  0  0  0  0  0  0  0
   30.0800   42.1960   90.8470 N   0  0  0  0  0  0  0  0  0  0  0  0
   29.6130   42.4370   89.9720 H   0  0  0  0  0  0  0  0  0  0  0  0
   30.5640   45.1560   90.0530 C   0  0  2  0  0  0  0  0  0  0  0  0
   31.0020   46.5550   89.9210 N   0  0  0  0  0  4  0  0  0  0  0  0
   32.4590   46.5880   89.6980 C   0  0  0  0  0  0  0  0  0  0  0  0
   30.7440   47.2850   91.1630 C   0  0  0  0  0  0  0  0  0  0  0  0
   30.3670   47.3000   88.8510 C   0  0  0  0  0  0  0  0  0  0  0  0
   29.1170   44.9720   89.5490 C   0  0  0  0  0  0  0  0  0  0  0  0
   28.9370   44.1110   88.6630 O   0  0  0  0  0  0  0  0  0  0  0  0
   28.1350   45.6670   89.9530 O   0  0  0  0  0  0  0  0  0  0  0  0
  1  2  1  0  0  0  0
  2  8  1  0  0  0  0
  2  3  2  0  0  0  0
  3  4  1  0  0  0  0
  4  5  1  0  0  0  0
  4  6  1  0  0  0  0
  5  7  2  0  0  0  0
  5  8  1  0  0  0  0
  8  9  1  0  0  0  0
 10  1  1  1  0  0  0
 10 15  1  0  0  0  0
 10 11  1  0  0  0  0
 11 14  1  0  0  0  0
 11 12  1  0  0  0  0
 11 13  1  0  0  0  0
 15 16  2  0  0  0  0
 15 17  1  0  0  0  0
M  END
>  <MODEL>
1

>  <REMARK>
 VINA RESULT:    -7.059      0.000      0.000
 INTER + INTRA:          -8.652
 INTER:                  -8.710
 INTRA:                   0.059
 UNBOUND:                 0.059
  4 active torsions:
  status: ('A' for Active; 'I' for Inactive)
    1  A    between atoms: C_2  and  C_4 
    2  A    between atoms: C_4  and  C_9 
    3  A    between atoms: C_4  and  N_5 
    4  A    between atoms: C_9  and  C_10 

>  <COMPND>
    /home/daniil/Downloads/ml_docking_review/databases/Vina/outputs/7TXK_LW8/7TXK_LW8.pdbqt 

>  <AUTHOR>
    GENERATED BY OPEN BABEL 3.2.1

>  <MASTER>
        0    0    0    0    0    0    0    0   17    0   17    0

$$$$
