../../databases/Vina/outputs/7P85_5ZG/7P85_5ZG1.pdb
 OpenBabel08242616453D

 14 14  0  0  0  0  0  0  0  0999 V2000
   17.6730  -31.2250   -0.8460 C   0  0  0  0  0  0  0  0  0  0  0  0
   17.8020  -32.3790   -0.0870 C   0  0  0  0  0  0  0  0  0  0  0  0
   18.9380  -32.6020    0.6700 C   0  0  0  0  0  0  0  0  0  0  0  0
   20.0110  -31.7260    0.6500 C   0  0  0  0  0  0  0  0  0  0  0  0
   19.8870  -30.5810   -0.1130 C   0  0  0  0  0  0  0  0  0  0  0  0
   18.7480  -30.3430   -0.8660 C   0  0  0  0  0  0  0  0  0  0  0  0
   21.2510  -31.9880    1.4840 C   0  0  0  0  0  0  0  0  0  0  0  0
   16.4280  -30.9460   -1.6610 C   0  0  0  0  0  0  0  0  0  0  0  0
   16.4080  -31.8610   -3.1920 P   0  0  1  0  0  0  0  0  0  0  0  0
   15.4820  -31.3500   -4.2290 O   0  0  0  0  0  0  0  0  0  0  0  0
   17.8960  -31.9010   -3.6860 O   0  0  0  0  0  0  0  0  0  0  0  0
   15.7450  -33.1980   -2.7100 O   0  0  0  0  0  0  0  0  0  0  0  0
   16.1780  -34.5130   -2.9030 C   0  0  0  0  0  0  0  0  0  0  0  0
   15.9110  -35.1350   -1.5910 C   0  0  0  0  0  0  0  0  0  0  0  0
  1  8  1  0  0  0  0
  1  6  2  0  0  0  0
  1  2  1  0  0  0  0
  2  3  2  0  0  0  0
  3  4  1  0  0  0  0
  4  5  2  0  0  0  0
  4  7  1  0  0  0  0
  5  6  1  0  0  0  0
  8  9  1  0  0  0  0
  9 10  2  6  0  0  0
  9 11  1  0  0  0  0
  9 12  1  0  0  0  0
 12 13  1  0  0  0  0
 13 14  1  0  0  0  0
M  END
>  <MODEL>
1

>  <REMARK>
 VINA RESULT:    -6.861      0.000      0.000
 INTER + INTRA:          -8.801
 INTER:                  -8.466
 INTRA:                  -0.336
 UNBOUND:                -0.336
  4 active torsions:
  status: ('A' for Active; 'I' for Inactive)
    1  A    between atoms: C_1  and  C_7 
    2  A    between atoms: C_7  and  P_11 
    3  A    between atoms: C_9  and  O_12 
    4  A    between atoms: P_11  and  O_12 

>  <COMPND>
    /home/daniil/Downloads/ml_docking_review/databases/Vina/outputs/7P85_5ZG/7P85_5ZG.pdbqt 

>  <AUTHOR>
    GENERATED BY OPEN BABEL 3.2.1

>  <MASTER>
        0    0    0    0    0    0    0    0   14    0   14    0

$$$$
