../../databases/Vina/outputs/7LOE_Y84/7LOE_Y841.pdb
 OpenBabel08242616453D

 11 12  0  0  0  0  0  0  0  0999 V2000
   39.8640  -20.2290   13.6040 C   0  0  0  0  0  0  0  0  0  0  0  0
   42.1360  -20.2130   12.6610 C   0  0  0  0  0  0  0  0  0  0  0  0
   43.0300  -19.8390   11.6650 C   0  0  0  0  0  0  0  0  0  0  0  0
   42.5780  -19.0970   10.5720 C   0  0  0  0  0  0  0  0  0  0  0  0
   41.2390  -18.7310   10.4850 C   0  0  0  0  0  0  0  0  0  0  0  0
   40.3240  -19.1150   11.5080 C   0  0  0  0  0  0  0  0  0  0  0  0
   38.9500  -18.7430   11.4310 C   0  0  0  0  0  0  0  0  0  0  0  0
   38.0690  -19.1230   12.4390 C   0  0  0  0  0  0  0  0  0  0  0  0
   38.5270  -19.8640   13.5270 C   0  0  0  0  0  0  0  0  0  0  0  0
   40.7660  -19.8400   12.5730 C   0  0  0  0  0  0  0  0  0  0  0  0
   42.5540  -20.9380   13.7370 F   0  0  0  0  0  0  0  0  0  0  0  0
  1 10  2  0  0  0  0
  1  9  1  0  0  0  0
  2  3  2  0  0  0  0
  2 10  1  0  0  0  0
  2 11  1  0  0  0  0
  3  4  1  0  0  0  0
  4  5  2  0  0  0  0
  5  6  1  0  0  0  0
  6  7  2  0  0  0  0
  6 10  1  0  0  0  0
  7  8  1  0  0  0  0
  8  9  2  0  0  0  0
M  END
>  <MODEL>
1

>  <REMARK>
 VINA RESULT:    -8.069      0.000      0.000
 INTER + INTRA:          -8.069
 INTER:                  -8.069
 INTRA:                   0.000
 UNBOUND:                 0.000
  0 active torsions:
  status: ('A' for Active; 'I' for Inactive)

>  <COMPND>
    /home/daniil/Downloads/ml_docking_review/databases/Vina/outputs/7LOE_Y84/7LOE_Y84.pdbqt 

>  <AUTHOR>
    GENERATED BY OPEN BABEL 3.2.1

>  <MASTER>
        0    0    0    0    0    0    0    0   11    0   11    0

$$$$
