../../databases/Vina/outputs/7OEO_V9Z/7OEO_V9Z1.pdb
 OpenBabel08242616453D

 33 35  0  0  0  0  0  0  0  0999 V2000
  -18.3790   -6.3630  -21.6140 N   0  0  0  0  0  0  0  0  0  0  0  0
  -18.1920   -6.8290  -20.3610 C   0  0  0  0  0  0  0  0  0  0  0  0
  -19.1070   -6.8950  -19.5610 O   0  0  0  0  0  0  0  0  0  0  0  0
  -19.7160   -5.8950  -21.9240 C   0  0  0  0  0  0  0  0  0  0  0  0
  -20.0710   -4.6430  -21.1440 C   0  0  0  0  0  0  0  0  0  0  0  0
  -19.3930   -3.6260  -21.2590 O   0  0  0  0  0  0  0  0  0  0  0  0
  -21.1340   -4.7040  -20.3550 N   0  0  0  0  0  0  0  0  0  0  0  0
  -21.5840   -3.5740  -19.5710 C   0  0  0  0  0  0  0  0  0  0  0  0
  -21.6540   -5.5800  -20.2990 H   0  0  0  0  0  0  0  0  0  0  0  0
  -17.3540   -6.2050  -22.6450 C   0  0  0  0  0  0  0  0  0  0  0  0
  -17.5210   -7.2120  -23.7870 C   0  0  0  0  0  0  0  0  0  0  0  0
  -17.1530   -8.6130  -23.3150 C   0  0  0  0  0  0  0  0  0  0  0  0
  -15.8260   -9.0150  -23.2460 C   0  0  0  0  0  0  0  0  0  0  0  0
  -15.4950  -10.2860  -22.8120 C   0  0  0  0  0  0  0  0  0  0  0  0
  -16.4810  -11.1710  -22.4400 C   0  0  0  0  0  0  0  0  0  0  0  0
  -17.8020  -10.7890  -22.5130 C   0  0  0  0  0  0  0  0  0  0  0  0
  -18.1380   -9.5180  -22.9450 C   0  0  0  0  0  0  0  0  0  0  0  0
  -16.7640   -6.8170  -25.0540 C   0  0  0  0  0  0  0  0  0  0  0  0
  -15.6970   -5.9330  -24.9810 C   0  0  0  0  0  0  0  0  0  0  0  0
  -15.0020   -5.5690  -26.1200 C   0  0  0  0  0  0  0  0  0  0  0  0
  -15.3610   -6.0820  -27.3460 C   0  0  0  0  0  0  0  0  0  0  0  0
  -16.4170   -6.9580  -27.4340 C   0  0  0  0  0  0  0  0  0  0  0  0
  -17.1150   -7.3260  -26.2960 C   0  0  0  0  0  0  0  0  0  0  0  0
  -16.8270   -7.2760  -19.9350 C   0  0  0  0  0  0  0  0  0  0  0  0
  -16.5830   -8.6180  -19.6730 C   0  0  0  0  0  0  0  0  0  0  0  0
  -15.3330   -9.0590  -19.2500 C   0  0  0  0  0  0  0  0  0  0  0  0
  -15.0980  -10.5220  -18.9860 C   0  0  0  0  0  0  0  0  0  0  0  0
  -14.3320   -8.0980  -19.0670 C   0  0  0  0  0  0  0  0  0  0  0  0
  -14.5470   -6.7390  -19.2920 C   0  0  0  0  0  0  0  0  0  0  0  0
  -13.4590   -5.7110  -19.1000 C   0  0  0  0  0  0  0  0  0  0  0  0
  -15.8090   -6.3480  -19.7260 C   0  0  0  0  0  0  0  0  0  0  0  0
  -13.0920   -8.5080  -18.6290 O   0  0  0  0  0  0  0  0  0  0  0  0
  -12.9540   -8.4490  -17.2140 C   0  0  0  0  0  0  0  0  0  0  0  0
  1 10  1  0  0  0  0
  1  4  1  0  0  0  0
  1  2  1  0  0  0  0
  2 24  1  0  0  0  0
  2  3  2  0  0  0  0
  4  5  1  0  0  0  0
  5  6  2  0  0  0  0
  5  7  1  0  0  0  0
  7  9  1  0  0  0  0
  7  8  1  0  0  0  0
 10 11  1  0  0  0  0
 11 18  1  0  0  0  0
 11 12  1  0  0  0  0
 12 13  2  0  0  0  0
 12 17  1  0  0  0  0
 13 14  1  0  0  0  0
 14 15  2  0  0  0  0
 15 16  1  0  0  0  0
 16 17  2  0  0  0  0
 18 23  2  0  0  0  0
 18 19  1  0  0  0  0
 19 20  2  0  0  0  0
 20 21  1  0  0  0  0
 21 22  2  0  0  0  0
 22 23  1  0  0  0  0
 24 31  2  0  0  0  0
 24 25  1  0  0  0  0
 25 26  2  0  0  0  0
 26 28  1  0  0  0  0
 26 27  1  0  0  0  0
 28 29  2  0  0  0  0
 28 32  1  0  0  0  0
 29 31  1  0  0  0  0
 29 30  1  0  0  0  0
 32 33  1  0  0  0  0
M  END
>  <MODEL>
1

>  <REMARK>
 VINA RESULT:    -8.659      0.000      0.000
 INTER + INTRA:         -15.322
 INTER:                 -12.708
 INTRA:                  -2.613
 UNBOUND:                -2.613
  8 active torsions:
  status: ('A' for Active; 'I' for Inactive)
    1  A    between atoms: N_1  and  C_9 
    2  A    between atoms: N_1  and  C_2 
       I    between atoms: N_1  and  C_22 
    3  A    between atoms: C_2  and  C_10 
       I    between atoms: N_5  and  C_7 
    4  A    between atoms: C_7  and  C_9 
    5  A    between atoms: C_10  and  C_16 
    6  A    between atoms: C_10  and  C_11 
    7  A    between atoms: C_22  and  C_24 
    8  A    between atoms: C_28  and  O_29 

>  <COMPND>
    /home/daniil/Downloads/ml_docking_review/databases/Vina/outputs/7OEO_V9Z/7OEO_V9Z.pdbqt 

>  <AUTHOR>
    GENERATED BY OPEN BABEL 3.2.1

>  <MASTER>
        0    0    0    0    0    0    0    0   33    0   33    0

$$$$
