../../databases/Vina/outputs/8FV9_80J/8FV9_80J1.pdb
 OpenBabel08242616453D

 31 32  0  0  1  0  0  0  0  0999 V2000
  -15.6550   -3.0140   20.9060 C   0  0  1  0  0  0  0  0  0  0  0  0
  -15.0970   -3.7660   19.6510 C   0  0  1  0  0  0  0  0  0  0  0  0
  -14.4050   -2.6410   18.8980 C   0  0  1  0  0  0  0  0  0  0  0  0
  -14.8030   -1.4730   19.4610 C   0  0  2  0  0  0  0  0  0  0  0  0
  -14.2460   -4.7130   20.0580 F   0  0  0  0  0  0  0  0  0  0  0  0
  -15.9930   -1.8560   20.4510 O   0  0  0  0  0  0  0  0  0  0  0  0
  -15.3230   -0.4370   18.4940 C   0  0  0  0  0  0  0  0  0  0  0  0
  -14.5080   -0.4610   17.3720 O   0  0  0  0  0  0  0  0  0  0  0  0
  -14.3980    0.8540   16.3870 P   0  0  1  0  0  0  0  0  0  0  0  0
  -15.0650    2.0480   17.0290 O   0  0  0  0  0  0  0  0  0  0  0  0
  -12.9690    1.1530   16.0360 O   0  0  0  0  0  0  0  0  0  0  0  0
  -15.1020    0.5220   14.9290 O   0  0  0  0  0  0  0  0  0  0  0  0
  -16.4880    1.2030   14.3850 P   0  0  1  0  0  0  0  0  0  0  0  0
  -16.8350    0.5160   13.0940 O   0  0  0  0  0  0  0  0  0  0  0  0
  -17.6070    1.1080   15.4080 O   0  0  0  0  0  0  0  0  0  0  0  0
  -16.2240    2.7900   14.1330 O   0  0  0  0  0  0  0  0  0  0  0  0
  -17.2340    3.8160   13.3650 P   0  0  0  0  0  0  0  0  0  0  0  0
  -16.5560    5.1690   13.4580 O   0  0  0  0  0  0  0  0  0  0  0  0
  -17.4000    3.4270   11.9150 O   0  0  0  0  0  0  0  0  0  0  0  0
  -18.5580    3.8310   14.0970 O   0  0  0  0  0  0  0  0  0  0  0  0
  -12.9200   -2.7660   19.0540 O   0  0  0  0  0  0  0  0  0  0  0  0
  -12.7170   -3.1630   19.8920 H   0  0  0  0  0  0  0  0  0  0  0  0
  -16.8700   -3.6010   21.5510 N   0  0  0  0  0  0  0  0  0  0  0  0
  -18.0880   -3.1480   21.2270 C   0  0  0  0  0  0  0  0  0  0  0  0
  -19.2060   -3.6790   21.8770 C   0  0  0  0  0  0  0  0  0  0  0  0
  -19.0080   -4.6500   22.8530 C   0  0  0  0  0  0  0  0  0  0  0  0
  -20.1330   -5.2320   23.5650 N   0  0  0  0  0  0  0  0  0  0  0  0
  -17.7700   -5.0460   23.1400 N   0  0  0  0  0  0  0  0  0  0  0  0
  -16.7300   -4.5210   22.5030 C   0  0  0  0  0  0  0  0  0  0  0  0
  -17.6190   -5.7580   23.8550 H   0  0  0  0  0  0  0  0  0  0  0  0
  -15.6390   -4.9100   22.7920 O   0  0  0  0  0  0  0  0  0  0  0  0
  1  2  1  0  0  0  0
  1  6  1  0  0  0  0
  1 23  1  6  0  0  0
  2  3  1  0  0  0  0
  2  5  1  1  0  0  0
  3 21  1  1  0  0  0
  3  4  1  0  0  0  0
  4  7  1  6  0  0  0
  4  6  1  0  0  0  0
  7  8  1  0  0  0  0
  8  9  1  0  0  0  0
  9 12  1  0  0  0  0
  9 11  2  6  0  0  0
  9 10  1  0  0  0  0
 12 13  1  0  0  0  0
 13 14  2  6  0  0  0
 13 16  1  0  0  0  0
 13 15  1  0  0  0  0
 16 17  1  0  0  0  0
 17 19  2  0  0  0  0
 17 18  1  0  0  0  0
 17 20  1  0  0  0  0
 21 22  1  0  0  0  0
 23 24  1  0  0  0  0
 23 29  1  0  0  0  0
 24 25  1  0  0  0  0
 25 26  2  0  0  0  0
 26 28  1  0  0  0  0
 26 27  1  0  0  0  0
 28 29  1  0  0  0  0
 28 30  1  0  0  0  0
 29 31  2  0  0  0  0
M  END
>  <MODEL>
1

>  <REMARK>
 VINA RESULT:    -7.867      0.000      0.000
 INTER + INTRA:         -12.598
 INTER:                 -11.776
 INTRA:                  -0.822
 UNBOUND:                -0.822
  9 active torsions:
  status: ('A' for Active; 'I' for Inactive)
    1  A    between atoms: C_1  and  N_11 
    2  A    between atoms: C_4  and  O_22 
    3  A    between atoms: C_6  and  C_8 
    4  A    between atoms: C_8  and  O_28 
    5  A    between atoms: O_24  and  P_29 
    6  A    between atoms: O_24  and  P_30 
    7  A    between atoms: O_25  and  P_31 
    8  A    between atoms: O_25  and  P_30 
    9  A    between atoms: O_28  and  P_29 

>  <COMPND>
    /home/daniil/Downloads/ml_docking_review/databases/Vina/outputs/8FV9_80J/8FV9_80J.pdbqt 

>  <AUTHOR>
    GENERATED BY OPEN BABEL 3.2.1

>  <MASTER>
        0    0    0    0    0    0    0    0   31    0   31    0

$$$$
