../../databases/Vina/outputs/7RNI_60I/7RNI_60I1.pdb
 OpenBabel08242616453D

 33 36  0  0  1  0  0  0  0  0999 V2000
  180.4800  127.1900   30.2560 O   0  0  0  0  0  0  0  0  0  0  0  0
  183.4270  125.2700   31.2070 C   0  0  0  0  0  0  0  0  0  0  0  0
  181.6430  126.9590   30.5670 C   0  0  0  0  0  0  0  0  0  0  0  0
  181.1250  124.6070   30.9700 C   0  0  0  0  0  0  0  0  0  0  0  0
  181.5040  123.5550   29.9520 C   0  0  0  0  0  0  0  0  0  0  0  0
  183.8530  124.2010   30.2130 C   0  0  0  0  0  0  0  0  0  0  0  0
  182.0680  125.7240   30.8900 N   0  0  0  0  0  0  0  0  0  0  0  0
  182.8760  123.0720   30.2870 N   0  0  0  0  0  0  0  0  0  0  0  0
  183.2870  121.9380   29.4030 C   0  0  0  0  0  0  0  0  0  0  0  0
  182.3820  120.7820   29.7200 C   0  0  2  0  0  0  0  0  0  0  0  0
  181.3530  120.4770   28.9580 N   0  0  0  0  0  0  0  0  0  0  0  0
  180.6920  119.4570   29.6450 C   0  0  0  0  0  0  0  0  0  0  0  0
  181.0960  120.8930   28.0630 H   0  0  0  0  0  0  0  0  0  0  0  0
  179.5070  118.7930   29.3320 C   0  0  0  0  0  0  0  0  0  0  0  0
  181.3610  119.1550   30.8230 C   0  0  0  0  0  0  0  0  0  0  0  0
  179.0230  117.8440   30.2230 C   0  0  0  0  0  0  0  0  0  0  0  0
  179.7060  117.5570   31.4020 C   0  0  0  0  0  0  0  0  0  0  0  0
  180.8920  118.2050   31.7130 C   0  0  0  0  0  0  0  0  0  0  0  0
  182.4520  120.0190   30.8580 N   0  0  0  0  0  0  0  0  0  0  0  0
  183.4090  120.1360   31.9770 C   0  0  0  0  0  0  0  0  0  0  0  0
  184.6150  119.1680   31.9740 C   0  0  0  0  0  0  0  0  0  0  0  0
  184.2020  117.7820   32.4520 C   0  0  0  0  0  0  0  0  0  0  0  0
  185.6650  119.7220   32.9330 C   0  0  0  0  0  0  0  0  0  0  0  0
  185.2690  119.0410   30.6030 C   0  0  0  0  0  0  0  0  0  0  0  0
  182.6100  128.1130   30.6760 C   0  0  0  0  0  0  0  0  0  0  0  0
  183.0870  128.8610   29.6140 C   0  0  1  0  0  0  0  0  0  0  0  0
  183.8210  129.8750   30.0990 N   0  0  0  0  0  0  0  0  0  0  0  0
  182.9390  128.6790   28.1420 C   0  0  0  0  0  0  0  0  0  0  0  0
  184.5260  130.9340   29.3870 C   0  0  0  0  0  0  0  0  0  0  0  0
  183.8770  129.8280   31.4590 N   0  0  0  0  0  0  0  0  0  0  0  0
  183.1620  128.7780   31.8150 C   0  0  0  0  0  0  0  0  0  0  0  0
  184.3720  130.4720   32.0760 H   0  0  0  0  0  0  0  0  0  0  0  0
  183.0100  128.4660   33.2660 C   0  0  0  0  0  0  0  0  0  0  0  0
  1  3  2  0  0  0  0
  2  6  1  0  0  0  0
  2  7  1  0  0  0  0
  3 25  1  0  0  0  0
  3  7  1  0  0  0  0
  4  5  1  0  0  0  0
  4  7  1  0  0  0  0
  5  8  1  0  0  0  0
  6  8  1  0  0  0  0
  8  9  1  0  0  0  0
 10  9  1  1  0  0  0
 10 11  1  0  0  0  0
 10 19  1  0  0  0  0
 11 13  1  0  0  0  0
 11 12  1  0  0  0  0
 12 14  2  0  0  0  0
 12 15  1  0  0  0  0
 14 16  1  0  0  0  0
 15 19  1  0  0  0  0
 15 18  2  0  0  0  0
 16 17  2  0  0  0  0
 17 18  1  0  0  0  0
 19 20  1  0  0  0  0
 20 21  1  0  0  0  0
 21 24  1  0  0  0  0
 21 22  1  0  0  0  0
 21 23  1  0  0  0  0
 25 26  1  0  0  0  0
 25 31  2  0  0  0  0
 26 28  1  6  0  0  0
 26 27  1  0  0  0  0
 27 29  1  0  0  0  0
 27 30  1  0  0  0  0
 30 31  1  0  0  0  0
 30 32  1  0  0  0  0
 31 33  1  0  0  0  0
M  END
>  <MODEL>
1

>  <REMARK>
 VINA RESULT:    -9.364      0.000      0.000
 INTER + INTRA:         -12.841
 INTER:                 -12.101
 INTRA:                  -0.741
 UNBOUND:                -0.741
  5 active torsions:
  status: ('A' for Active; 'I' for Inactive)
    1  A    between atoms: C_6  and  C_7 
    2  A    between atoms: C_6  and  N_30 
    3  A    between atoms: C_14  and  C_16 
    4  A    between atoms: C_14  and  N_33 
    5  A    between atoms: C_15  and  C_23 
       I    between atoms: C_23  and  N_29 

>  <COMPND>
    /home/daniil/Downloads/ml_docking_review/databases/Vina/outputs/7RNI_60I/7RNI_60I.pdbqt 

>  <AUTHOR>
    GENERATED BY OPEN BABEL 3.2.1

>  <MASTER>
        0    0    0    0    0    0    0    0   33    0   33    0

$$$$
