../../databases/Vina/outputs/7CUO_PHB/7CUO_PHB1.pdb
 OpenBabel08242612033D

 11 11  0  0  0  0  0  0  0  0999 V2000
   22.1640   14.0680   61.2350 C   0  0  0  0  0  0  0  0  0  0  0  0
   22.6920   15.0550   62.0570 C   0  0  0  0  0  0  0  0  0  0  0  0
   23.2250   16.2140   61.5250 C   0  0  0  0  0  0  0  0  0  0  0  0
   23.2410   16.4010   60.1510 C   0  0  0  0  0  0  0  0  0  0  0  0
   22.7040   15.4260   59.3230 C   0  0  0  0  0  0  0  0  0  0  0  0
   22.1780   14.2680   59.8640 C   0  0  0  0  0  0  0  0  0  0  0  0
   21.6120   12.7990   61.8260 C   0  0  0  0  0  0  0  0  0  0  0  0
   21.4690   11.8330   61.0580 O   0  0  0  0  0  0  0  0  0  0  0  0
   21.2910   12.7840   63.0400 O   0  0  0  0  0  0  0  0  0  0  0  0
   23.7790   17.5400   59.6240 O   0  0  0  0  0  0  0  0  0  0  0  0
   24.6500   17.8170   59.8810 H   0  0  0  0  0  0  0  0  0  0  0  0
  1  6  2  0  0  0  0
  1  7  1  0  0  0  0
  1  2  1  0  0  0  0
  2  3  2  0  0  0  0
  3  4  1  0  0  0  0
  4  5  2  0  0  0  0
  4 10  1  0  0  0  0
  5  6  1  0  0  0  0
  7  8  2  0  0  0  0
  7  9  1  0  0  0  0
 10 11  1  0  0  0  0
M  END
>  <MODEL>
1

>  <REMARK>
 VINA RESULT:    -7.212      0.000      0.000
 INTER + INTRA:          -7.885
 INTER:                  -7.845
 INTRA:                  -0.040
 UNBOUND:                -0.040
  2 active torsions:
  status: ('A' for Active; 'I' for Inactive)
    1  A    between atoms: C_1  and  C_4 
    2  A    between atoms: C_7  and  O_10 

>  <COMPND>
    /home/daniil/Downloads/ml_docking_review/databases/Vina/outputs/7CUO_PHB/7CUO_PHB.pdbqt 

>  <AUTHOR>
    GENERATED BY OPEN BABEL 3.2.1

>  <MASTER>
        0    0    0    0    0    0    0    0   11    0   11    0

$$$$
