../../databases/Vina/outputs/7LEV_0JO/7LEV_0JO1.pdb
 OpenBabel08242616453D

 17 17  0  0  1  0  0  0  0  0999 V2000
    7.5530   -1.0890   22.6980 C   0  0  0  0  0  0  0  0  0  0  0  0
    6.4080   -1.9950   22.2480 C   0  0  0  0  0  0  0  0  0  0  0  0
    5.2440   -2.0120   22.9420 C   0  0  0  0  0  0  0  0  0  0  0  0
    4.2070   -2.8320   22.5340 C   0  0  1  0  0  0  0  0  0  0  0  0
    2.8950   -2.8510   23.3160 C   0  0  0  0  0  0  0  0  0  0  0  0
    4.3530   -3.6170   21.4430 N   0  0  0  0  0  0  0  0  0  0  0  0
    3.5880   -4.2210   21.1420 H   0  0  0  0  0  0  0  0  0  0  0  0
    5.5150   -3.6020   20.7480 C   0  0  0  0  0  0  0  0  0  0  0  0
    6.5550   -2.7810   21.1540 C   0  0  0  0  0  0  0  0  0  0  0  0
    7.8660   -2.7640   20.3680 C   0  0  0  0  0  0  0  0  0  0  0  0
    7.6950   -3.4470   19.1600 O   0  0  0  0  0  0  0  0  0  0  0  0
    8.5620   -4.8270   18.9080 P   0  0  0  0  0  0  0  0  0  0  0  0
    8.2500   -5.8220   20.0020 O   0  0  0  0  0  0  0  0  0  0  0  0
    8.1900   -5.4190   17.5710 O   0  0  0  0  0  0  0  0  0  0  0  0
   10.0380   -4.5060   18.9260 O   0  0  0  0  0  0  0  0  0  0  0  0
    5.0890   -1.1990   24.0730 O   0  0  0  0  0  0  0  0  0  0  0  0
    4.3460   -0.6120   24.1400 H   0  0  0  0  0  0  0  0  0  0  0  0
  1  2  1  0  0  0  0
  2  9  1  0  0  0  0
  2  3  2  0  0  0  0
  3  4  1  0  0  0  0
  3 16  1  0  0  0  0
  4  6  1  0  0  0  0
  4  5  1  6  0  0  0
  6  8  1  0  0  0  0
  6  7  1  0  0  0  0
  8  9  2  0  0  0  0
  9 10  1  0  0  0  0
 10 11  1  0  0  0  0
 11 12  1  0  0  0  0
 12 14  2  0  0  0  0
 12 15  1  0  0  0  0
 12 13  1  0  0  0  0
 16 17  1  0  0  0  0
M  END
>  <MODEL>
1

>  <REMARK>
 VINA RESULT:    -8.798      0.000      0.000
 INTER + INTRA:         -10.801
 INTER:                 -10.598
 INTRA:                  -0.203
 UNBOUND:                -0.203
  4 active torsions:
  status: ('A' for Active; 'I' for Inactive)
    1  A    between atoms: C_3  and  O_4 
    2  A    between atoms: C_11  and  C_12 
    3  A    between atoms: C_12  and  O_13 
    4  A    between atoms: O_13  and  P_14 

>  <COMPND>
    /home/daniil/Downloads/ml_docking_review/databases/Vina/outputs/7LEV_0JO/7LEV_0JO.pdbqt 

>  <AUTHOR>
    GENERATED BY OPEN BABEL 3.2.1

>  <MASTER>
        0    0    0    0    0    0    0    0   17    0   17    0

$$$$
