../../databases/Vina/outputs/8A2D_KXY/8A2D_KXY1.pdb
 OpenBabel08242616453D

 54 61  0  0  1  0  0  0  0  0999 V2000
   -2.4710  -10.9830   21.0210 C   0  0  0  0  0  0  0  0  0  0  0  0
   -2.7470  -12.1690   20.0860 C   0  0  0  0  0  0  0  0  0  0  0  0
   -3.5450  -10.3440   21.5890 C   0  0  1  0  0  0  0  0  0  0  0  0
   -3.3770   -9.2370   22.4730 C   0  0  0  0  0  0  0  0  0  0  0  0
   -4.6580   -8.8000   22.7960 C   0  0  0  0  0  0  0  0  0  0  0  0
   -2.0500   -8.7870   22.8200 C   0  0  0  0  0  0  0  0  0  0  0  0
   -5.4880   -9.6140   22.1050 N   0  0  0  0  0  0  0  0  0  0  0  0
   -1.2130  -10.5670   21.4000 C   0  0  0  0  0  0  0  0  0  0  0  0
   -1.0140   -9.5050   22.2590 C   0  0  0  0  0  0  0  0  0  0  0  0
   -4.8610  -10.5730   21.3840 N   0  0  0  0  0  0  0  0  0  0  0  0
   -5.2850  -11.3050   20.8140 H   0  0  0  0  0  0  0  0  0  0  0  0
   -6.9680   -9.6610   22.1910 C   0  0  2  0  0  0  0  0  0  0  0  0
   -7.5260   -8.2800   22.1920 C   0  0  0  0  0  0  0  0  0  0  0  0
   -8.2150   -7.6690   23.1470 C   0  0  0  0  0  0  0  0  0  0  0  0
   -8.8300   -7.8100   24.5530 C   0  0  0  0  0  0  0  0  0  0  0  0
   -8.5400   -6.4100   22.6880 N   0  0  0  0  0  0  0  0  0  0  0  0
   -9.3540   -6.4150   24.8800 C   0  0  0  0  0  0  0  0  0  0  0  0
   -9.3340   -5.6500   23.5680 C   0  0  0  0  0  0  0  0  0  0  0  0
   -9.3620   -4.1200   23.5060 C   0  0  0  0  0  0  0  0  0  0  0  0
  -10.5850   -4.9520   23.0320 C   0  0  0  0  0  0  0  0  0  0  0  0
   -8.0280   -6.3250   21.4570 C   0  0  0  0  0  0  0  0  0  0  0  0
   -7.3890   -7.4360   21.1160 N   0  0  0  0  0  0  0  0  0  0  0  0
   -6.9000   -7.6250   20.2410 H   0  0  0  0  0  0  0  0  0  0  0  0
   -7.3420  -10.4310   23.4050 C   0  0  0  0  0  0  0  0  0  0  0  0
   -6.7320  -10.3340   24.4750 O   0  0  0  0  0  0  0  0  0  0  0  0
   -8.4260  -11.2450   23.3010 N   0  0  0  0  0  0  0  0  0  0  0  0
   -8.8840  -11.3290   22.3930 H   0  0  0  0  0  0  0  0  0  0  0  0
   -8.9300  -11.9530   24.3490 C   0  0  2  0  0  0  0  0  0  0  0  0
  -10.1990  -13.1010   24.2670 S   0  0  0  0  0  0  0  0  0  0  0  0
  -10.0990  -13.3360   25.9940 C   0  0  0  0  0  0  0  0  0  0  0  0
   -9.1320  -12.5410   26.4940 C   0  0  0  0  0  0  0  0  0  0  0  0
   -8.4870  -11.7580   25.5550 N   0  0  0  0  0  0  0  0  0  0  0  0
   -7.7430  -11.0970   25.7840 H   0  0  0  0  0  0  0  0  0  0  0  0
   -1.7940   -7.7310   23.8020 C   0  0  0  0  0  0  0  0  0  0  0  0
   -2.2410   -8.0850   25.0400 F   0  0  0  0  0  0  0  0  0  0  0  0
   -2.5810   -6.6180   23.5190 F   0  0  0  0  0  0  0  0  0  0  0  0
   -0.0150  -11.2450   20.8850 C   0  0  0  0  0  0  0  0  0  0  0  0
    0.9570  -11.7790   20.4900 C   0  0  0  0  0  0  0  0  0  0  0  0
    2.1540  -12.4840   20.0330 C   0  0  0  0  0  0  0  0  0  0  0  0
    3.3000  -11.7610   19.7620 C   0  0  0  0  0  0  0  0  0  0  0  0
    4.4220  -12.4470   19.2620 C   0  0  0  0  0  0  0  0  0  0  0  0
    4.2920  -13.8150   19.0230 C   0  0  0  0  0  0  0  0  0  0  0  0
    3.1600  -14.5280   19.2590 C   0  0  0  0  0  0  0  0  0  0  0  0
    2.0150  -13.8210   19.7530 C   0  0  0  0  0  0  0  0  0  0  0  0
    5.5170  -14.6070   18.5230 C   0  0  0  0  0  0  0  0  0  0  0  0
    5.0690  -15.3750   17.3450 N   0  0  0  0  0  0  0  0  0  0  0  0
    5.5430  -16.7730   17.3240 C   0  0  0  0  0  0  0  0  0  0  0  0
    4.8160  -17.5110   16.1880 C   0  0  0  0  0  0  0  0  0  0  0  0
    4.9540  -16.7430   14.8640 C   0  0  1  0  0  0  0  0  0  0  0  0
    4.4350  -15.2980   14.9890 C   0  0  0  0  0  0  0  0  0  0  0  0
    5.2460  -14.6100   16.0950 C   0  0  0  0  0  0  0  0  0  0  0  0
    6.4300  -16.7240   14.4620 C   0  0  0  0  0  0  0  0  0  0  0  0
    6.8490  -18.0690   14.2620 O   0  0  0  0  0  0  0  0  0  0  0  0
    7.6690  -18.1940   14.7260 H   0  0  0  0  0  0  0  0  0  0  0  0
  1  2  1  0  0  0  0
  1  8  2  0  0  0  0
  3  1  1  6  0  0  0
  3 10  1  0  0  0  0
  3  4  1  0  0  0  0
  4  5  2  0  0  0  0
  4  6  1  0  0  0  0
  5  7  1  0  0  0  0
  6  9  2  0  0  0  0
  6 34  1  0  0  0  0
  7 10  1  0  0  0  0
  7 12  1  0  0  0  0
  8 37  1  0  0  0  0
  8  9  1  0  0  0  0
 10 11  1  0  0  0  0
 12 13  1  0  0  0  0
 12 24  1  1  0  0  0
 13 22  1  0  0  0  0
 13 14  2  0  0  0  0
 14 16  1  0  0  0  0
 14 15  1  0  0  0  0
 15 17  1  0  0  0  0
 16 21  1  0  0  0  0
 16 18  1  0  0  0  0
 17 18  1  0  0  0  0
 18 20  1  0  0  0  0
 18 19  1  0  0  0  0
 19 20  1  0  0  0  0
 21 22  1  0  0  0  0
 22 23  1  0  0  0  0
 24 26  1  0  0  0  0
 24 25  2  0  0  0  0
 26 27  1  0  0  0  0
 28 26  1  1  0  0  0
 28 29  1  0  0  0  0
 28 32  1  0  0  0  0
 29 30  1  0  0  0  0
 30 31  2  0  0  0  0
 31 32  1  0  0  0  0
 32 33  1  0  0  0  0
 34 36  1  0  0  0  0
 34 35  1  0  0  0  0
 37 38  3  0  0  0  0
 38 39  1  0  0  0  0
 39 44  2  0  0  0  0
 39 40  1  0  0  0  0
 40 41  2  0  0  0  0
 41 42  1  0  0  0  0
 42 45  1  0  0  0  0
 42 43  2  0  0  0  0
 43 44  1  0  0  0  0
 45 46  1  0  0  0  0
 46 51  1  0  0  0  0
 46 47  1  0  0  0  0
 47 48  1  0  0  0  0
 48 49  1  0  0  0  0
 49 52  1  1  0  0  0
 49 50  1  0  0  0  0
 50 51  1  0  0  0  0
 52 53  1  0  0  0  0
 53 54  1  0  0  0  0
M  END
>  <MODEL>
1

>  <REMARK>
 VINA RESULT:   -11.769      0.000      0.000
 INTER + INTRA:         -20.346
 INTER:                 -18.994
 INTRA:                  -1.352
 UNBOUND:                -1.352
  11 active torsions:
  status: ('A' for Active; 'I' for Inactive)
    1  A    between atoms: C_1  and  C_4 
    2  A    between atoms: C_1  and  N_27 
    3  A    between atoms: C_1  and  C_2 
       I    between atoms: C_2  and  N_41 
    4  A    between atoms: C_11  and  N_41 
    5  A    between atoms: C_12  and  C_52 
    6  A    between atoms: C_17  and  C_30 
    7  A    between atoms: C_18  and  C_34 
    8  A    between atoms: C_28  and  C_33 
    9  A    between atoms: C_35  and  C_38 
   10  A    between atoms: C_38  and  N_51 
   11  A    between atoms: C_52  and  O_53 

>  <COMPND>
    /home/daniil/Downloads/ml_docking_review/databases/Vina/outputs/8A2D_KXY/8A2D_KXY.pdbqt 

>  <AUTHOR>
    GENERATED BY OPEN BABEL 3.2.1

>  <MASTER>
        0    0    0    0    0    0    0    0   54    0   54    0

$$$$
