../../databases/Vina/outputs/6ZK5_IMH/6ZK5_IMH1.pdb
 OpenBabel08242616453D

 27 29  0  0  1  0  0  0  0  0999 V2000
  -13.2270   -6.9860   -1.9900 C   0  0  1  0  0  0  0  0  0  0  0  0
  -13.5560   -8.1650   -2.8160 N   0  0  0  0  0  4  0  0  0  0  0  0
  -12.7880   -8.4310   -3.4330 H   0  0  0  0  0  0  0  0  0  0  0  0
  -14.2520   -7.9540   -3.5320 H   0  0  0  0  0  0  0  0  0  0  0  0
  -14.2510   -7.0810   -0.8600 C   0  0  2  0  0  0  0  0  0  0  0  0
  -14.5690   -8.5810   -0.7000 C   0  0  2  0  0  0  0  0  0  0  0  0
  -13.9730   -9.2660   -1.9460 C   0  0  2  0  0  0  0  0  0  0  0  0
  -12.8060  -10.1660   -1.6930 C   0  0  0  0  0  0  0  0  0  0  0  0
  -12.0780  -10.3160   -0.5480 C   0  0  0  0  0  0  0  0  0  0  0  0
  -11.0020  -11.1300   -0.7750 N   0  0  0  0  0  0  0  0  0  0  0  0
  -11.0200  -11.5290   -2.0900 C   0  0  0  0  0  0  0  0  0  0  0  0
  -10.3030  -11.3970   -0.0830 H   0  0  0  0  0  0  0  0  0  0  0  0
  -10.2250  -12.3280   -2.9270 C   0  0  0  0  0  0  0  0  0  0  0  0
  -12.1520  -10.9640   -2.7030 C   0  0  0  0  0  0  0  0  0  0  0  0
   -9.1190  -12.8100   -2.4540 O   0  0  0  0  0  0  0  0  0  0  0  0
  -10.5690  -12.5780   -4.2160 N   0  0  0  0  0  0  0  0  0  0  0  0
  -11.7020  -12.0220   -4.7100 C   0  0  0  0  0  0  0  0  0  0  0  0
   -9.9850  -13.1750   -4.8030 H   0  0  0  0  0  0  0  0  0  0  0  0
  -12.5070  -11.2020   -3.9910 N   0  0  0  0  0  0  0  0  0  0  0  0
  -13.3420  -10.7830   -4.3990 H   0  0  0  0  0  0  0  0  0  0  0  0
  -15.9710   -8.8240   -0.6580 O   0  0  0  0  0  0  0  0  0  0  0  0
  -16.1790   -9.7290   -0.8550 H   0  0  0  0  0  0  0  0  0  0  0  0
  -11.7730   -6.9280   -1.5410 C   0  0  0  0  0  0  0  0  0  0  0  0
  -10.9130   -7.1830   -2.6490 O   0  0  0  0  0  0  0  0  0  0  0  0
  -11.1220   -6.5910   -3.3630 H   0  0  0  0  0  0  0  0  0  0  0  0
  -15.4260   -6.3280   -1.1420 O   0  0  0  0  0  0  0  0  0  0  0  0
  -15.8100   -5.9620   -0.3540 H   0  0  0  0  0  0  0  0  0  0  0  0
  1  2  1  0  0  0  0
  1 23  1  1  0  0  0
  1  5  1  0  0  0  0
  2  4  1  0  0  0  0
  2  3  1  0  0  0  0
  2  7  1  0  0  0  0
  5 26  1  6  0  0  0
  5  6  1  0  0  0  0
  6  7  1  0  0  0  0
  6 21  1  6  0  0  0
  7  8  1  1  0  0  0
  8 14  1  0  0  0  0
  8  9  2  0  0  0  0
  9 10  1  0  0  0  0
 10 11  1  0  0  0  0
 10 12  1  0  0  0  0
 11 13  1  0  0  0  0
 11 14  2  0  0  0  0
 13 16  1  0  0  0  0
 13 15  2  0  0  0  0
 14 19  1  0  0  0  0
 16 18  1  0  0  0  0
 16 17  1  0  0  0  0
 17 19  1  0  0  0  0
 19 20  1  0  0  0  0
 21 22  1  0  0  0  0
 23 24  1  0  0  0  0
 24 25  1  0  0  0  0
 26 27  1  0  0  0  0
M  END
>  <MODEL>
1

>  <REMARK>
 VINA RESULT:    -9.117      0.000      0.000
 INTER + INTRA:         -11.436
 INTER:                 -10.983
 INTRA:                  -0.453
 UNBOUND:                -0.453
  5 active torsions:
  status: ('A' for Active; 'I' for Inactive)
    1  A    between atoms: O_1  and  C_3 
    2  A    between atoms: C_3  and  CA_4 
    3  A    between atoms: C_8  and  O_9 
    4  A    between atoms: C_11  and  O_12 
    5  A    between atoms: C_14  and  C_15 

>  <COMPND>
    /home/daniil/Downloads/ml_docking_review/databases/Vina/outputs/6ZK5_IMH/6ZK5_IMH.pdbqt 

>  <AUTHOR>
    GENERATED BY OPEN BABEL 3.2.1

>  <MASTER>
        0    0    0    0    0    0    0    0   27    0   27    0

$$$$
