../../databases/Vina/outputs/7USH_82V/7USH_82V1.pdb
 OpenBabel08242616453D

 26 30  0  0  0  0  0  0  0  0999 V2000
   18.7290   -5.2280    9.6610 C   0  0  0  0  0  0  0  0  0  0  0  0
   16.7500   -6.6260    9.3680 C   0  0  0  0  0  0  0  0  0  0  0  0
   20.5660   -4.7350   11.0320 O   0  0  0  0  0  0  0  0  0  0  0  0
   19.9130   -4.5110    9.9960 C   0  0  0  0  0  0  0  0  0  0  0  0
   20.3400   -3.5160    9.0340 C   0  0  0  0  0  0  0  0  0  0  0  0
   19.7100   -3.3990    7.8610 C   0  0  0  0  0  0  0  0  0  0  0  0
   18.5530   -4.0680    7.6050 O   0  0  0  0  0  0  0  0  0  0  0  0
   18.0860   -5.0030    8.4900 C   0  0  0  0  0  0  0  0  0  0  0  0
   17.9580   -6.4370   10.5810 S   0  0  0  0  0  0  0  0  0  0  0  0
   16.8840   -5.8130    8.2790 C   0  0  0  0  0  0  0  0  0  0  0  0
   16.0350   -5.7740    7.0940 C   0  0  0  0  0  0  0  0  0  0  0  0
   15.3340   -6.9210    6.6390 C   0  0  0  0  0  0  0  0  0  0  0  0
   14.4810   -6.9140    5.5260 C   0  0  0  0  0  0  0  0  0  0  0  0
   14.2580   -5.7280    4.8240 C   0  0  0  0  0  0  0  0  0  0  0  0
   13.4160   -5.7390    3.7400 O   0  0  0  0  0  0  0  0  0  0  0  0
   14.9130   -4.5640    5.2480 C   0  0  0  0  0  0  0  0  0  0  0  0
   12.9300   -4.4730    3.3110 C   0  0  0  0  0  0  0  0  0  0  0  0
   14.0120   -3.4040    3.3450 C   0  0  0  0  0  0  0  0  0  0  0  0
   14.7300   -3.3900    4.5840 O   0  0  0  0  0  0  0  0  0  0  0  0
   15.7730   -4.6030    6.3690 C   0  0  0  0  0  0  0  0  0  0  0  0
   19.9070   -2.3760    6.8960 N   0  0  0  0  0  0  0  0  0  0  0  0
   20.4540   -1.0420    7.1470 C   0  0  0  0  0  0  0  0  0  0  0  0
   21.8050   -0.8900    6.4330 C   0  0  0  0  0  0  0  0  0  0  0  0
   21.7160   -1.2160    5.0470 O   0  0  0  0  0  0  0  0  0  0  0  0
   21.0770   -2.4610    4.7690 C   0  0  0  0  0  0  0  0  0  0  0  0
   19.7280   -2.5600    5.4480 C   0  0  0  0  0  0  0  0  0  0  0  0
  1  8  2  0  0  0  0
  1  4  1  0  0  0  0
  1  9  1  0  0  0  0
  2 10  2  0  0  0  0
  2  9  1  0  0  0  0
  3  4  2  0  0  0  0
  4  5  1  0  0  0  0
  5  6  2  0  0  0  0
  6 21  1  0  0  0  0
  6  7  1  0  0  0  0
  7  8  1  0  0  0  0
  8 10  1  0  0  0  0
 10 11  1  0  0  0  0
 11 20  2  0  0  0  0
 11 12  1  0  0  0  0
 12 13  2  0  0  0  0
 13 14  1  0  0  0  0
 14 15  1  0  0  0  0
 14 16  2  0  0  0  0
 15 17  1  0  0  0  0
 16 19  1  0  0  0  0
 16 20  1  0  0  0  0
 17 18  1  0  0  0  0
 18 19  1  0  0  0  0
 21 26  1  0  0  0  0
 21 22  1  0  0  0  0
 22 23  1  0  0  0  0
 23 24  1  0  0  0  0
 24 25  1  0  0  0  0
 25 26  1  0  0  0  0
M  END
>  <MODEL>
1

>  <REMARK>
 VINA RESULT:    -9.237      0.000      0.000
 INTER + INTRA:         -10.754
 INTER:                 -10.317
 INTRA:                  -0.436
 UNBOUND:                -0.436
  2 active torsions:
  status: ('A' for Active; 'I' for Inactive)
    1  A    between atoms: C_4  and  C_20 
    2  A    between atoms: C_11  and  N_12 

>  <COMPND>
    /home/daniil/Downloads/ml_docking_review/databases/Vina/outputs/7USH_82V/7USH_82V.pdbqt 

>  <AUTHOR>
    GENERATED BY OPEN BABEL 3.2.1

>  <MASTER>
        0    0    0    0    0    0    0    0   26    0   26    0

$$$$
