../../databases/Vina/outputs/6T88_MWQ/6T88_MWQ1.pdb
 OpenBabel08242616453D

 12 12  0  0  0  0  0  0  0  0999 V2000
  -11.0860  -53.9100   -6.0390 C   0  0  0  0  0  0  0  0  0  0  0  0
  -11.5440  -54.5700   -4.9280 C   0  0  0  0  0  0  0  0  0  0  0  0
  -11.3960  -55.8730   -5.1800 N   0  0  0  0  0  0  0  0  0  0  0  0
  -11.6530  -56.6290   -4.5460 H   0  0  0  0  0  0  0  0  0  0  0  0
  -10.8630  -56.0300   -6.3840 C   0  0  0  0  0  0  0  0  0  0  0  0
  -10.6880  -54.8320   -6.9070 N   0  0  0  0  0  0  0  0  0  0  0  0
  -10.3050  -54.6430   -7.8330 H   0  0  0  0  0  0  0  0  0  0  0  0
  -11.0440  -52.4040   -6.2730 C   0  0  0  0  0  0  0  0  0  0  0  0
  -12.4310  -51.8870   -6.6730 C   0  0  0  0  0  0  0  0  0  0  0  0
  -12.4060  -50.7760   -7.7030 C   0  0  0  0  0  0  0  0  0  0  0  0
  -12.0280  -49.6240   -7.3440 O   0  0  0  0  0  0  0  0  0  0  0  0
  -12.7820  -51.0110   -8.8910 O   0  0  0  0  0  0  0  0  0  0  0  0
  1  6  1  0  0  0  0
  1  8  1  0  0  0  0
  1  2  2  0  0  0  0
  2  3  1  0  0  0  0
  3  5  1  0  0  0  0
  3  4  1  0  0  0  0
  5  6  1  0  0  0  0
  6  7  1  0  0  0  0
  8  9  1  0  0  0  0
  9 10  1  0  0  0  0
 10 12  2  0  0  0  0
 10 11  1  0  0  0  0
M  END
>  <MODEL>
1

>  <REMARK>
 VINA RESULT:    -6.467      0.000      0.000
 INTER + INTRA:          -7.672
 INTER:                  -7.601
 INTRA:                  -0.071
 UNBOUND:                -0.071
  3 active torsions:
  status: ('A' for Active; 'I' for Inactive)
    1  A    between atoms: C_2  and  C_4 
    2  A    between atoms: C_4  and  C_5 
    3  A    between atoms: C_5  and  C_6 

>  <COMPND>
    /home/daniil/Downloads/ml_docking_review/databases/Vina/outputs/6T88_MWQ/6T88_MWQ.pdbqt 

>  <AUTHOR>
    GENERATED BY OPEN BABEL 3.2.1

>  <MASTER>
        0    0    0    0    0    0    0    0   12    0   12    0

$$$$
