../../databases/Vina/outputs/7REE_4LY/7REE_4LY1.pdb
 OpenBabel08242616453D

 47 52  0  0  1  0  0  0  0  0999 V2000
   12.9360  -13.2050    6.4410 C   0  0  0  0  0  0  0  0  0  0  0  0
   13.3760  -14.1940    7.4810 C   0  0  0  0  0  0  0  0  0  0  0  0
   13.7610  -15.0200    8.1570 N   0  0  0  0  0  0  0  0  0  0  0  0
   12.9200  -13.7320    4.9770 C   0  0  0  0  0  0  0  0  0  0  0  0
   14.2170  -14.2220    4.5890 C   0  0  0  0  0  0  0  0  0  0  0  0
   14.2590  -13.0160    3.6950 N   0  0  0  0  0  0  0  0  0  0  0  0
   12.9460  -12.5570    4.1910 C   0  0  0  0  0  0  0  0  0  0  0  0
   14.8290  -12.8690    2.1110 S   0  0  0  0  0  0  0  0  0  0  0  0
   13.7730  -12.2940    1.3270 O   0  0  0  0  0  0  0  0  0  0  0  0
   15.1920  -14.1740    1.6130 O   0  0  0  0  0  0  0  0  0  0  0  0
   16.2680  -11.7380    2.0460 C   0  0  0  0  0  0  0  0  0  0  0  0
   17.5180  -12.5780    1.9800 C   0  0  0  0  0  0  0  0  0  0  0  0
   11.8370  -14.6090    4.9040 N   0  0  1  0  0  0  0  0  0  0  0  0
   11.7680  -15.8560    5.3280 C   0  0  0  0  0  0  0  0  0  0  0  0
   10.4800  -16.2960    5.0450 C   0  0  0  0  0  0  0  0  0  0  0  0
    9.7560  -15.2600    4.4900 C   0  0  0  0  0  0  0  0  0  0  0  0
   10.6430  -14.2250    4.3900 N   0  0  0  0  0  0  0  0  0  0  0  0
   10.4390  -13.3080    3.9920 H   0  0  0  0  0  0  0  0  0  0  0  0
    9.7980  -17.5980    5.4440 C   0  0  2  0  0  0  0  0  0  0  0  0
    8.4870  -17.5240    5.6510 N   0  0  0  0  0  0  0  0  0  0  0  0
    7.8330  -18.5810    6.0540 C   0  0  1  0  0  0  0  0  0  0  0  0
    7.9930  -16.6450    5.4960 H   0  0  0  0  0  0  0  0  0  0  0  0
    8.3900  -19.7370    6.3330 N   0  0  0  0  0  0  0  0  0  0  0  0
    9.7090  -19.8610    6.1600 C   0  0  0  0  0  0  0  0  0  0  0  0
    7.8310  -20.5200    6.6730 H   0  0  0  0  0  0  0  0  0  0  0  0
   10.5050  -20.9270    6.3650 N   0  0  0  0  0  0  0  0  0  0  0  0
   10.4780  -18.8010    5.7120 C   0  0  0  0  0  0  0  0  0  0  0  0
   11.7690  -20.5840    6.0320 C   0  0  0  0  0  0  0  0  0  0  0  0
   10.2060  -21.8380    6.7120 H   0  0  0  0  0  0  0  0  0  0  0  0
   11.8160  -19.2850    5.6270 C   0  0  0  0  0  0  0  0  0  0  0  0
    6.4300  -18.5180    6.2730 N   0  0  0  0  0  0  0  0  0  0  0  0
    5.9900  -19.3410    6.6840 H   0  0  0  0  0  0  0  0  0  0  0  0
    5.5760  -17.4120    5.9740 C   0  0  0  0  0  0  0  0  0  0  0  0
    4.2480  -17.6960    6.1850 C   0  0  0  0  0  0  0  0  0  0  0  0
    3.3030  -16.7300    5.9410 C   0  0  0  0  0  0  0  0  0  0  0  0
    3.6460  -15.4900    5.4740 C   0  0  0  0  0  0  0  0  0  0  0  0
    2.0080  -17.0360    6.1750 F   0  0  0  0  0  0  0  0  0  0  0  0
    4.9720  -15.2100    5.2640 C   0  0  0  0  0  0  0  0  0  0  0  0
    5.9640  -16.1620    5.5000 C   0  0  0  0  0  0  0  0  0  0  0  0
    5.4140  -14.0050    4.7940 F   0  0  0  0  0  0  0  0  0  0  0  0
    2.5540  -14.4350    5.2380 C   0  0  0  0  0  0  0  0  0  0  0  0
    2.3100  -13.5330    6.2160 C   0  0  0  0  0  0  0  0  0  0  0  0
    1.1050  -12.4250    5.8750 C   0  0  0  0  0  0  0  0  0  0  0  0
    0.2000  -12.9250    5.1660 N   0  0  0  0  0  0  0  0  0  0  0  0
   -0.6930  -12.0620    4.9560 C   0  0  0  0  0  0  0  0  0  0  0  0
    0.6880  -13.5610    3.8250 C   0  0  0  0  0  0  0  0  0  0  0  0
    1.6660  -14.6070    4.0440 C   0  0  0  0  0  0  0  0  0  0  0  0
  1  4  1  0  0  0  0
  1  2  1  0  0  0  0
  2  3  3  0  0  0  0
  4  7  1  0  0  0  0
  4  5  1  0  0  0  0
  5  6  1  0  0  0  0
  6  8  1  0  0  0  0
  6  7  1  0  0  0  0
  8  9  2  0  0  0  0
  8 10  2  0  0  0  0
  8 11  1  0  0  0  0
 11 12  1  0  0  0  0
 13  4  1  1  0  0  0
 13 17  1  0  0  0  0
 13 14  1  0  0  0  0
 14 15  1  0  0  0  0
 15 16  2  0  0  0  0
 16 17  1  0  0  0  0
 17 18  1  0  0  0  0
 19 15  1  1  0  0  0
 19 20  1  0  0  0  0
 19 27  1  0  0  0  0
 20 22  1  0  0  0  0
 20 21  1  0  0  0  0
 21 31  1  1  0  0  0
 21 23  1  0  0  0  0
 23 24  1  0  0  0  0
 23 25  1  0  0  0  0
 24 27  2  0  0  0  0
 24 26  1  0  0  0  0
 26 28  1  0  0  0  0
 26 29  1  0  0  0  0
 27 30  1  0  0  0  0
 28 30  2  0  0  0  0
 31 33  1  0  0  0  0
 31 32  1  0  0  0  0
 33 39  2  0  0  0  0
 33 34  1  0  0  0  0
 34 35  2  0  0  0  0
 35 36  1  0  0  0  0
 35 37  1  0  0  0  0
 36 41  1  0  0  0  0
 36 38  2  0  0  0  0
 38 40  1  0  0  0  0
 38 39  1  0  0  0  0
 41 47  1  0  0  0  0
 41 42  2  0  0  0  0
 42 43  1  0  0  0  0
 43 44  1  0  0  0  0
 44 46  1  0  0  0  0
 44 45  1  0  0  0  0
 46 47  1  0  0  0  0
M  END
>  <MODEL>
1

>  <REMARK>
 VINA RESULT:   -11.014      0.000      0.000
 INTER + INTRA:         -16.715
 INTER:                 -16.165
 INTRA:                  -0.550
 UNBOUND:                -0.550
  8 active torsions:
  status: ('A' for Active; 'I' for Inactive)
    1  A    between atoms: C_4  and  N_38 
    2  A    between atoms: C_6  and  C_18 
    3  A    between atoms: C_9  and  N_33 
    4  A    between atoms: C_9  and  C_10 
    5  A    between atoms: C_12  and  C_13 
    6  A    between atoms: C_16  and  N_38 
    7  A    between atoms: C_27  and  S_47 
    8  A    between atoms: N_31  and  S_47 

>  <COMPND>
    /home/daniil/Downloads/ml_docking_review/databases/Vina/outputs/7REE_4LY/7REE_4LY.pdbqt 

>  <AUTHOR>
    GENERATED BY OPEN BABEL 3.2.1

>  <MASTER>
        0    0    0    0    0    0    0    0   47    0   47    0

$$$$
