../../databases/Vina/outputs/7NML_I7B/7NML_I7B1.pdb
 OpenBabel08242616453D

 20 20  0  0  0  0  0  0  0  0999 V2000
   -1.3380   17.5490   -5.7160 C   0  0  0  0  0  0  0  0  0  0  0  0
   -1.9370   17.6700   -6.9570 C   0  0  0  0  0  0  0  0  0  0  0  0
   -1.6550   18.7190   -7.7850 C   0  0  0  0  0  0  0  0  0  0  0  0
   -0.7800   19.6950   -7.3690 C   0  0  0  0  0  0  0  0  0  0  0  0
   -0.1720   19.5830   -6.1290 C   0  0  0  0  0  0  0  0  0  0  0  0
   -0.4420   18.5340   -5.2800 C   0  0  0  0  0  0  0  0  0  0  0  0
   -2.2660   18.8220   -9.0390 N   0  0  0  0  0  0  0  0  0  0  0  0
    0.8610   20.7660   -5.7150 Cl  0  0  0  0  0  0  0  0  0  0  0  0
   -3.0650   16.3840   -7.4050 S   0  0  0  0  0  0  0  0  0  0  0  0
   -2.8730   15.1840   -6.3970 O   0  0  0  0  0  0  0  0  0  0  0  0
   -4.4690   16.8790   -7.2290 O   0  0  0  0  0  0  0  0  0  0  0  0
   -2.8000   15.9790   -8.8290 N   0  0  0  0  0  0  0  0  0  0  0  0
   -3.5050   16.0340   -9.5640 H   0  0  0  0  0  0  0  0  0  0  0  0
   -1.8440   15.6480   -8.9640 H   0  0  0  0  0  0  0  0  0  0  0  0
    0.3310   18.3470   -3.6690 S   0  0  0  0  0  0  0  0  0  0  0  0
   -0.0210   19.5050   -2.7800 O   0  0  0  0  0  0  0  0  0  0  0  0
   -0.1780   16.9930   -3.1250 O   0  0  0  0  0  0  0  0  0  0  0  0
    1.8280   18.2670   -3.8790 N   0  0  0  0  0  0  0  0  0  0  0  0
    2.4880   19.0300   -3.7210 H   0  0  0  0  0  0  0  0  0  0  0  0
    2.0490   17.3250   -4.2010 H   0  0  0  0  0  0  0  0  0  0  0  0
  1  2  2  0  0  0  0
  1  6  1  0  0  0  0
  2  3  1  0  0  0  0
  2  9  1  0  0  0  0
  3  7  1  0  0  0  0
  3  4  2  0  0  0  0
  4  5  1  0  0  0  0
  5  8  1  0  0  0  0
  5  6  2  0  0  0  0
  6 15  1  0  0  0  0
  9 12  1  0  0  0  0
  9 11  2  0  0  0  0
  9 10  2  0  0  0  0
 12 13  1  0  0  0  0
 12 14  1  0  0  0  0
 15 18  1  0  0  0  0
 15 17  2  0  0  0  0
 15 16  2  0  0  0  0
 18 20  1  0  0  0  0
 18 19  1  0  0  0  0
M  END
>  <MODEL>
1

>  <REMARK>
 VINA RESULT:    -3.832      0.000      0.000
 INTER + INTRA:          -4.802
 INTER:                  -4.504
 INTRA:                  -0.298
 UNBOUND:                -0.298
  4 active torsions:
  status: ('A' for Active; 'I' for Inactive)
    1  A    between atoms: C_2  and  S_7 
    2  A    between atoms: C_6  and  S_13 
    3  A    between atoms: S_7  and  N_8 
    4  A    between atoms: S_13  and  N_14 

>  <COMPND>
    /home/daniil/Downloads/ml_docking_review/databases/Vina/outputs/7NML_I7B/7NML_I7B.pdbqt 

>  <AUTHOR>
    GENERATED BY OPEN BABEL 3.2.1

>  <MASTER>
        0    0    0    0    0    0    0    0   20    0   20    0

$$$$
