../../databases/Vina/outputs/7KP6_WTP/7KP6_WTP1.pdb
 OpenBabel08242616453D

 32 35  0  0  1  0  0  0  0  0999 V2000
   31.4260   25.3840   25.6030 C   0  0  2  0  0  0  0  0  0  0  0  0
   32.6370   25.3110   24.9230 C   0  0  0  0  0  0  0  0  0  0  0  0
   32.8980   26.2470   23.9400 C   0  0  0  0  0  0  0  0  0  0  0  0
   31.9360   27.2120   23.6740 N   0  0  0  0  0  0  0  0  0  0  0  0
   32.1090   27.9020   22.9430 H   0  0  0  0  0  0  0  0  0  0  0  0
   30.5380   26.3460   25.3150 N   0  0  0  0  0  0  0  0  0  0  0  0
   29.6590   26.3880   25.8320 H   0  0  0  0  0  0  0  0  0  0  0  0
   30.7830   27.2540   24.3610 C   0  0  2  0  0  0  0  0  0  0  0  0
   33.8210   24.1010   25.2670 Cl  0  0  0  0  0  0  0  0  0  0  0  0
   29.9490   28.2320   24.0010 N   0  0  0  0  0  0  0  0  0  0  0  0
   30.3350   29.1740   23.9360 H   0  0  0  0  0  0  0  0  0  0  0  0
   28.6440   28.0830   23.7180 C   0  0  0  0  0  0  0  0  0  0  0  0
   28.0790   29.1490   23.0340 C   0  0  0  0  0  0  0  0  0  0  0  0
   26.7500   29.1330   22.6550 C   0  0  0  0  0  0  0  0  0  0  0  0
   25.9370   28.0430   22.9290 C   0  0  0  0  0  0  0  0  0  0  0  0
   26.4890   26.9660   23.6240 C   0  0  0  0  0  0  0  0  0  0  0  0
   27.8340   26.9820   24.0020 C   0  0  0  0  0  0  0  0  0  0  0  0
   24.6330   28.1240   22.5750 N   0  0  0  0  0  0  0  0  0  0  0  0
   24.2220   29.4300   22.0180 C   0  0  0  0  0  0  0  0  0  0  0  0
   22.8180   29.3360   21.4770 C   0  0  0  0  0  0  0  0  0  0  0  0
   21.8980   28.9920   22.5610 N   0  0  0  0  0  0  0  0  0  0  0  0
   22.2620   27.7000   23.1620 C   0  0  0  0  0  0  0  0  0  0  0  0
   20.5280   28.9170   22.0290 C   0  0  0  0  0  0  0  0  0  0  0  0
   23.6940   27.6350   23.5780 C   0  0  0  0  0  0  0  0  0  0  0  0
   31.2150   24.4550   26.5440 N   0  0  0  0  0  0  0  0  0  0  0  0
   31.1230   23.4850   26.2410 H   0  0  0  0  0  0  0  0  0  0  0  0
   31.1050   24.7360   27.9900 C   0  0  0  0  0  0  0  0  0  0  0  0
   29.6180   24.8100   28.3140 C   0  0  1  0  0  0  0  0  0  0  0  0
   28.9740   23.4730   28.4470 C   0  0  0  0  0  0  0  0  0  0  0  0
   29.4740   22.8930   29.7440 C   0  0  0  0  0  0  0  0  0  0  0  0
   29.7880   24.2140   30.4980 C   0  0  0  0  0  0  0  0  0  0  0  0
   29.2150   25.2470   29.6610 O   0  0  0  0  0  0  0  0  0  0  0  0
  1  2  1  0  0  0  0
  1  6  1  0  0  0  0
  1 25  1  1  0  0  0
  2  3  2  0  0  0  0
  2  9  1  0  0  0  0
  3  4  1  0  0  0  0
  4  5  1  0  0  0  0
  4  8  1  0  0  0  0
  6  8  1  0  0  0  0
  6  7  1  0  0  0  0
  8 10  1  6  0  0  0
 10 12  1  0  0  0  0
 10 11  1  0  0  0  0
 12 13  2  0  0  0  0
 12 17  1  0  0  0  0
 13 14  1  0  0  0  0
 14 15  2  0  0  0  0
 15 18  1  0  0  0  0
 15 16  1  0  0  0  0
 16 17  2  0  0  0  0
 18 19  1  0  0  0  0
 18 24  1  0  0  0  0
 19 20  1  0  0  0  0
 20 21  1  0  0  0  0
 21 23  1  0  0  0  0
 21 22  1  0  0  0  0
 22 24  1  0  0  0  0
 25 26  1  0  0  0  0
 25 27  1  0  0  0  0
 28 27  1  1  0  0  0
 28 29  1  0  0  0  0
 28 32  1  0  0  0  0
 29 30  1  0  0  0  0
 30 31  1  0  0  0  0
 31 32  1  0  0  0  0
M  END
>  <MODEL>
1

>  <REMARK>
 VINA RESULT:    -7.864      0.000      0.000
 INTER + INTRA:         -11.104
 INTER:                 -10.622
 INTRA:                  -0.483
 UNBOUND:                -0.483
  6 active torsions:
  status: ('A' for Active; 'I' for Inactive)
    1  A    between atoms: C_1  and  N_25 
    2  A    between atoms: C_8  and  N_27 
    3  A    between atoms: C_9  and  N_25 
    4  A    between atoms: C_9  and  C_10 
    5  A    between atoms: C_14  and  N_27 
    6  A    between atoms: C_17  and  N_29 

>  <COMPND>
    /home/daniil/Downloads/ml_docking_review/databases/Vina/outputs/7KP6_WTP/7KP6_WTP.pdbqt 

>  <AUTHOR>
    GENERATED BY OPEN BABEL 3.2.1

>  <MASTER>
        0    0    0    0    0    0    0    0   32    0   32    0

$$$$
