../../databases/Vina/outputs/7V43_C4O/7V43_C4O1.pdb
 OpenBabel08242616453D

  8  8  0  0  0  0  0  0  0  0999 V2000
  -40.2800   24.3830   -6.8750 C   0  0  0  0  0  0  0  0  0  0  0  0
  -40.7910   24.5310   -8.2720 C   0  0  0  0  0  0  0  0  0  0  0  0
  -39.9950   25.0250   -9.3410 C   0  0  0  0  0  0  0  0  0  0  0  0
  -40.4370   25.1800  -10.6380 C   0  0  0  0  0  0  0  0  0  0  0  0
  -41.7370   24.8930  -10.8440 C   0  0  0  0  0  0  0  0  0  0  0  0
  -42.2980   25.0690  -12.4990 Cl  0  0  0  0  0  0  0  0  0  0  0  0
  -42.6110   24.4510   -9.8710 C   0  0  0  0  0  0  0  0  0  0  0  0
  -42.1010   24.2810   -8.5730 C   0  0  0  0  0  0  0  0  0  0  0  0
  1  2  1  0  0  0  0
  2  3  2  0  0  0  0
  2  8  1  0  0  0  0
  3  4  1  0  0  0  0
  4  5  2  0  0  0  0
  5  6  1  0  0  0  0
  5  7  1  0  0  0  0
  7  8  2  0  0  0  0
M  END
>  <MODEL>
1

>  <REMARK>
 VINA RESULT:    -6.714      0.000      0.000
 INTER + INTRA:          -6.714
 INTER:                  -6.714
 INTRA:                   0.000
 UNBOUND:                 0.000
  0 active torsions:
  status: ('A' for Active; 'I' for Inactive)

>  <COMPND>
    /home/daniil/Downloads/ml_docking_review/databases/Vina/outputs/7V43_C4O/7V43_C4O.pdbqt 

>  <AUTHOR>
    GENERATED BY OPEN BABEL 3.2.1

>  <MASTER>
        0    0    0    0    0    0    0    0    8    0    8    0

$$$$
