../../databases/Vina/outputs/7Q5I_I0F/7Q5I_I0F1.pdb
 OpenBabel08242616453D

 32 33  0  0  1  0  0  0  0  0999 V2000
   35.0570   24.8780   30.5170 C   0  0  2  0  0  0  0  0  0  0  0  0
   36.0230   25.5120   29.7320 C   0  0  0  0  0  0  0  0  0  0  0  0
   36.7250   26.0260   29.0350 N   0  0  0  0  0  0  0  0  0  0  0  0
   35.1570   24.6560   31.9920 C   0  0  0  0  0  0  0  0  0  0  0  0
   36.0290   25.2970   32.8810 C   0  0  0  0  0  0  0  0  0  0  0  0
   35.5370   25.4620   34.1710 C   0  0  0  0  0  0  0  0  0  0  0  0
   36.2770   26.1100   35.1580 C   0  0  0  0  0  0  0  0  0  0  0  0
   37.5520   26.6160   34.8630 C   0  0  0  0  0  0  0  0  0  0  0  0
   38.0490   26.4310   33.5550 C   0  0  0  0  0  0  0  0  0  0  0  0
   37.3090   25.7750   32.5680 C   0  0  0  0  0  0  0  0  0  0  0  0
   38.2740   27.2930   35.8280 N   0  0  0  0  0  0  0  0  0  0  0  0
   37.5860   27.7150   37.0600 C   0  0  0  0  0  0  0  0  0  0  0  0
   39.6030   27.8310   35.4960 C   0  0  0  0  0  0  0  0  0  0  0  0
   33.9250   24.1550   29.7730 C   0  0  0  0  0  0  0  0  0  0  0  0
   32.7850   24.1490   30.2200 O   0  0  0  0  0  0  0  0  0  0  0  0
   34.2620   23.6040   28.6060 N   0  0  0  0  0  0  0  0  0  0  0  0
   35.2250   23.6680   28.2740 H   0  0  0  0  0  0  0  0  0  0  0  0
   33.2560   22.9070   27.7980 C   0  0  1  0  0  0  0  0  0  0  0  0
   33.6400   23.0110   26.3340 C   0  0  1  0  0  0  0  0  0  0  0  0
   32.5550   22.2870   25.5120 C   0  0  2  0  0  0  0  0  0  0  0  0
   32.3730   20.8540   26.0020 C   0  0  1  0  0  0  0  0  0  0  0  0
   32.1810   20.8110   27.5320 C   0  0  2  0  0  0  0  0  0  0  0  0
   33.2800   21.4750   28.1850 O   0  0  0  0  0  0  0  0  0  0  0  0
   33.6940   24.3980   25.9870 O   0  0  0  0  0  0  0  0  0  0  0  0
   33.0270   24.6080   25.3440 H   0  0  0  0  0  0  0  0  0  0  0  0
   32.8920   22.2720   24.1320 O   0  0  0  0  0  0  0  0  0  0  0  0
   33.7910   22.5460   24.0000 H   0  0  0  0  0  0  0  0  0  0  0  0
   31.2220   20.2970   25.3590 O   0  0  0  0  0  0  0  0  0  0  0  0
   30.8370   19.6490   25.9370 H   0  0  0  0  0  0  0  0  0  0  0  0
   32.1030   19.3820   28.0550 C   0  0  0  0  0  0  0  0  0  0  0  0
   30.7730   18.8830   27.9010 O   0  0  0  0  0  0  0  0  0  0  0  0
   30.3920   19.2280   27.1020 H   0  0  0  0  0  0  0  0  0  0  0  0
  1  2  1  6  0  0  0
  1 14  1  0  0  0  0
  1  4  1  0  0  0  0
  2  3  3  0  0  0  0
  4  5  1  0  0  0  0
  5 10  2  0  0  0  0
  5  6  1  0  0  0  0
  6  7  2  0  0  0  0
  7  8  1  0  0  0  0
  8  9  2  0  0  0  0
  8 11  1  0  0  0  0
  9 10  1  0  0  0  0
 11 13  1  0  0  0  0
 11 12  1  0  0  0  0
 14 16  1  0  0  0  0
 14 15  2  0  0  0  0
 16 17  1  0  0  0  0
 18 16  1  1  0  0  0
 18 19  1  0  0  0  0
 18 23  1  0  0  0  0
 19 20  1  0  0  0  0
 19 24  1  6  0  0  0
 20 26  1  6  0  0  0
 20 21  1  0  0  0  0
 21 28  1  6  0  0  0
 21 22  1  0  0  0  0
 22 30  1  1  0  0  0
 22 23  1  0  0  0  0
 24 25  1  0  0  0  0
 26 27  1  0  0  0  0
 28 29  1  0  0  0  0
 30 31  1  0  0  0  0
 31 32  1  0  0  0  0
M  END
>  <MODEL>
1

>  <REMARK>
 VINA RESULT:   -10.408      0.000      0.000
 INTER + INTRA:         -15.924
 INTER:                 -15.276
 INTRA:                  -0.648
 UNBOUND:                -0.648
  10 active torsions:
  status: ('A' for Active; 'I' for Inactive)
       I    between atoms: N_1  and  C_6 
    1  A    between atoms: N_1  and  C_21 
    2  A    between atoms: C_3  and  O_25 
    3  A    between atoms: C_4  and  C_5 
    4  A    between atoms: C_5  and  O_23 
    5  A    between atoms: C_6  and  C_7 
    6  A    between atoms: C_7  and  C_17 
    7  A    between atoms: C_8  and  C_17 
    8  A    between atoms: C_9  and  N_13 
    9  A    between atoms: C_27  and  O_28 
   10  A    between atoms: C_30  and  O_31 

>  <COMPND>
    /home/daniil/Downloads/ml_docking_review/databases/Vina/outputs/7Q5I_I0F/7Q5I_I0F.pdbqt 

>  <AUTHOR>
    GENERATED BY OPEN BABEL 3.2.1

>  <MASTER>
        0    0    0    0    0    0    0    0   32    0   32    0

$$$$
