../../databases/Vina/outputs/7CD9_FVR/7CD9_FVR1.pdb
 OpenBabel08242616453D

 36 40  0  0  1  0  0  0  0  0999 V2000
   16.4110   11.0440   20.5430 C   0  0  0  0  0  0  0  0  0  0  0  0
   15.3540   10.7810   19.4310 C   0  0  1  0  0  0  0  0  0  0  0  0
   15.9370   10.0070   18.3410 C   0  0  0  0  0  0  0  0  0  0  0  0
   17.0710   10.7670   17.7840 C   0  0  1  0  0  0  0  0  0  0  0  0
   18.1270   10.9710   18.9010 C   0  0  0  0  0  0  0  0  0  0  0  0
   18.4740   11.8090   20.9340 C   0  0  0  0  0  0  0  0  0  0  0  0
   17.5760   11.7040   20.0260 N   0  0  0  0  0  0  0  0  0  0  0  0
   14.2090   10.0830   20.1410 N   0  0  0  0  0  0  0  0  0  0  0  0
   14.2960    9.1030   20.4100 H   0  0  0  0  0  0  0  0  0  0  0  0
   13.0060   10.8020   20.4300 C   0  0  2  0  0  0  0  0  0  0  0  0
   11.8810   10.1270   20.7320 N   0  0  0  0  0  0  0  0  0  0  0  0
   10.7320   10.7600   20.9930 C   0  0  0  0  0  0  0  0  0  0  0  0
   11.9090    8.6720   20.8660 C   0  0  0  0  0  0  0  0  0  0  0  0
    9.7320   10.1140   21.2260 O   0  0  0  0  0  0  0  0  0  0  0  0
   10.7590   12.1500   20.8860 C   0  0  0  0  0  0  0  0  0  0  0  0
    9.7880   13.1050   21.0570 N   0  0  0  0  0  0  0  0  0  0  0  0
   11.9230   12.7970   20.5730 C   0  0  0  0  0  0  0  0  0  0  0  0
   10.3390   14.2980   20.8860 C   0  0  0  0  0  0  0  0  0  0  0  0
    8.8080   12.9260   21.2790 H   0  0  0  0  0  0  0  0  0  0  0  0
   11.6830   14.1820   20.5760 C   0  0  0  0  0  0  0  0  0  0  0  0
   13.0690   12.1200   20.3510 N   0  0  0  0  0  0  0  0  0  0  0  0
   13.9420   12.6010   20.1330 H   0  0  0  0  0  0  0  0  0  0  0  0
   17.7650   10.0520   16.5700 C   0  0  0  0  0  0  0  0  0  0  0  0
   18.4780   10.7210   15.5950 C   0  0  0  0  0  0  0  0  0  0  0  0
   19.0480   10.0000   14.5500 C   0  0  0  0  0  0  0  0  0  0  0  0
   18.8110    8.6380   14.4160 C   0  0  0  0  0  0  0  0  0  0  0  0
   18.0890    7.9900   15.3820 C   0  0  0  0  0  0  0  0  0  0  0  0
   17.5180    8.7000   16.4420 C   0  0  0  0  0  0  0  0  0  0  0  0
   19.3640    7.8470   13.3710 O   0  0  0  0  0  0  0  0  0  0  0  0
   18.7110    6.6360   13.0250 C   0  0  0  0  0  0  0  0  0  0  0  0
   17.8200    6.8870   11.7970 C   0  0  0  0  0  0  0  0  0  0  0  0
   17.8460    6.0430   10.7170 C   0  0  0  0  0  0  0  0  0  0  0  0
   17.0340    6.2620    9.6200 C   0  0  0  0  0  0  0  0  0  0  0  0
   16.2030    7.3550    9.5860 C   0  0  0  0  0  0  0  0  0  0  0  0
   16.1730    8.2270   10.6590 C   0  0  0  0  0  0  0  0  0  0  0  0
   16.9740    7.9790   11.7630 C   0  0  0  0  0  0  0  0  0  0  0  0
  1  2  1  0  0  0  0
  1  7  1  0  0  0  0
  2  3  1  0  0  0  0
  2  8  1  1  0  0  0
  3  4  1  0  0  0  0
  4 23  1  6  0  0  0
  4  5  1  0  0  0  0
  5  7  1  0  0  0  0
  6  7  1  0  0  0  0
  8  9  1  0  0  0  0
 10  8  1  6  0  0  0
 10 21  1  0  0  0  0
 10 11  1  0  0  0  0
 11 13  1  0  0  0  0
 11 12  1  0  0  0  0
 12 15  1  0  0  0  0
 12 14  2  0  0  0  0
 15 17  2  0  0  0  0
 15 16  1  0  0  0  0
 16 18  1  0  0  0  0
 16 19  1  0  0  0  0
 17 21  1  0  0  0  0
 17 20  1  0  0  0  0
 18 20  2  0  0  0  0
 21 22  1  0  0  0  0
 23 24  2  0  0  0  0
 23 28  1  0  0  0  0
 24 25  1  0  0  0  0
 25 26  2  0  0  0  0
 26 29  1  0  0  0  0
 26 27  1  0  0  0  0
 27 28  2  0  0  0  0
 29 30  1  0  0  0  0
 30 31  1  0  0  0  0
 31 32  2  0  0  0  0
 31 36  1  0  0  0  0
 32 33  1  0  0  0  0
 33 34  2  0  0  0  0
 34 35  1  0  0  0  0
 35 36  2  0  0  0  0
M  END
>  <MODEL>
1

>  <REMARK>
 VINA RESULT:   -12.612      0.000      0.000
 INTER + INTRA:         -17.935
 INTER:                 -17.036
 INTRA:                  -0.899
 UNBOUND:                -0.899
  6 active torsions:
  status: ('A' for Active; 'I' for Inactive)
    1  A    between atoms: C_2  and  N_28 
    2  A    between atoms: C_4  and  N_28 
    3  A    between atoms: C_9  and  O_36 
    4  A    between atoms: C_12  and  C_15 
    5  A    between atoms: C_20  and  C_21 
    6  A    between atoms: C_20  and  O_36 

>  <COMPND>
    /home/daniil/Downloads/ml_docking_review/databases/Vina/outputs/7CD9_FVR/7CD9_FVR.pdbqt 

>  <AUTHOR>
    GENERATED BY OPEN BABEL 3.2.1

>  <MASTER>
        0    0    0    0    0    0    0    0   36    0   36    0

$$$$
