../../databases/Vina/outputs/7OLI_8HG/7OLI_8HG1.pdb
 OpenBabel08242616453D

 25 27  0  0  1  0  0  0  0  0999 V2000
   12.1130   23.7410   33.9660 O   0  0  0  0  0  0  0  0  0  0  0  0
   10.9680   24.0550   33.6630 C   0  0  0  0  0  0  0  0  0  0  0  0
   10.6510   25.3930   33.3930 N   0  0  0  0  0  0  0  0  0  0  0  0
   11.3940   26.0840   33.4910 H   0  0  0  0  0  0  0  0  0  0  0  0
    9.3820   25.8500   32.9970 C   0  0  2  0  0  0  0  0  0  0  0  0
    9.1810   27.2210   32.7820 N   0  0  0  0  0  0  0  0  0  0  0  0
    8.3260   24.9400   32.8250 N   0  0  0  0  0  0  0  0  0  0  0  0
    7.4010   25.2440   32.5220 H   0  0  0  0  0  0  0  0  0  0  0  0
    8.6110   23.5780   33.0960 C   0  0  0  0  0  0  0  0  0  0  0  0
    9.8530   23.1450   33.5280 C   0  0  0  0  0  0  0  0  0  0  0  0
    9.8530   21.7440   33.7110 N   0  0  0  0  0  0  0  0  0  0  0  0
   10.6320   21.1580   34.0110 H   0  0  0  0  0  0  0  0  0  0  0  0
    8.5060   21.3210   33.3790 C   0  0  0  0  0  0  0  0  0  0  0  0
    8.0250   20.1940   33.3870 O   0  0  0  0  0  0  0  0  0  0  0  0
    7.7200   22.5040   33.0380 N   0  0  0  0  0  0  0  0  0  0  0  0
    6.3400   22.4940   32.5330 C   0  0  1  0  0  0  0  0  0  0  0  0
    5.4650   23.2860   33.1310 C   0  0  0  0  0  0  0  0  0  0  0  0
    4.5540   23.7680   31.9840 C   0  0  1  0  0  0  0  0  0  0  0  0
    5.4590   23.7830   30.7430 C   0  0  2  0  0  0  0  0  0  0  0  0
    6.6160   23.1740   31.1150 O   0  0  0  0  0  0  0  0  0  0  0  0
    3.4680   22.8940   31.7720 O   0  0  0  0  0  0  0  0  0  0  0  0
    3.5740   22.1140   32.3020 H   0  0  0  0  0  0  0  0  0  0  0  0
    5.8260   25.2020   30.2660 C   0  0  0  0  0  0  0  0  0  0  0  0
    7.2300   25.2830   30.0130 O   0  0  0  0  0  0  0  0  0  0  0  0
    7.4040   25.1120   29.0960 H   0  0  0  0  0  0  0  0  0  0  0  0
  1  2  2  0  0  0  0
  2  3  1  0  0  0  0
  2 10  1  0  0  0  0
  3  5  1  0  0  0  0
  3  4  1  0  0  0  0
  5  6  1  1  0  0  0
  5  7  1  0  0  0  0
  7  8  1  0  0  0  0
  7  9  1  0  0  0  0
  9 15  1  0  0  0  0
  9 10  2  0  0  0  0
 10 11  1  0  0  0  0
 11 13  1  0  0  0  0
 11 12  1  0  0  0  0
 13 15  1  0  0  0  0
 13 14  2  0  0  0  0
 16 15  1  1  0  0  0
 16 20  1  0  0  0  0
 16 17  1  0  0  0  0
 17 18  1  0  0  0  0
 18 19  1  0  0  0  0
 18 21  1  6  0  0  0
 19 23  1  1  0  0  0
 19 20  1  0  0  0  0
 21 22  1  0  0  0  0
 23 24  1  0  0  0  0
 24 25  1  0  0  0  0
M  END
>  <MODEL>
1

>  <REMARK>
 VINA RESULT:    -7.799      0.000      0.000
 INTER + INTRA:         -10.075
 INTER:                  -9.167
 INTRA:                  -0.909
 UNBOUND:                -0.909
  4 active torsions:
  status: ('A' for Active; 'I' for Inactive)
    1  A    between atoms: N_15  and  C1*_16 
    2  A    between atoms: C3*_19  and  O3*_20 
    3  A    between atoms: C4*_22  and  C5*_23 
    4  A    between atoms: C5*_23  and  O5*_24 

>  <COMPND>
    /home/daniil/Downloads/ml_docking_review/databases/Vina/outputs/7OLI_8HG/7OLI_8HG.pdbqt 

>  <AUTHOR>
    GENERATED BY OPEN BABEL 3.2.1

>  <MASTER>
        0    0    0    0    0    0    0    0   25    0   25    0

$$$$
