../../databases/Vina/outputs/6XBO_5MC/6XBO_5MC1.pdb
 OpenBabel08242616453D

 25 26  0  0  1  0  0  0  0  0999 V2000
   16.1380  -12.4640   10.2690 C   0  0  1  0  0  0  0  0  0  0  0  0
   17.4960  -12.1040    9.9300 O   0  0  0  0  0  0  0  0  0  0  0  0
   15.3850  -11.1640   10.5380 C   0  0  2  0  0  0  0  0  0  0  0  0
   16.2720  -10.0940    9.8870 C   0  0  2  0  0  0  0  0  0  0  0  0
   17.6650  -10.7060   10.0140 C   0  0  2  0  0  0  0  0  0  0  0  0
   18.6150  -10.3600    8.9540 N   0  0  0  0  0  0  0  0  0  0  0  0
   18.7160  -11.1340    7.8340 C   0  0  0  0  0  0  0  0  0  0  0  0
   19.6550  -10.8200    6.8970 C   0  0  0  0  0  0  0  0  0  0  0  0
   19.7860  -11.6320    5.6290 C   0  0  0  0  0  0  0  0  0  0  0  0
   20.5120   -9.7140    7.1240 C   0  0  0  0  0  0  0  0  0  0  0  0
   21.4690   -9.3560    6.1970 N   0  0  0  0  0  0  0  0  0  0  0  0
   20.3870   -9.0180    8.2470 N   0  0  0  0  0  0  0  0  0  0  0  0
   19.4690   -9.3430    9.1580 C   0  0  0  0  0  0  0  0  0  0  0  0
   21.0030   -8.2230    8.4160 H   0  0  0  0  0  0  0  0  0  0  0  0
   19.3730   -8.6990   10.1910 O   0  0  0  0  0  0  0  0  0  0  0  0
   16.2100   -8.8380   10.5250 O   0  0  0  0  0  0  0  0  0  0  0  0
   15.6260   -8.2200   10.1000 H   0  0  0  0  0  0  0  0  0  0  0  0
   15.5820  -13.3150    9.1540 C   0  0  0  0  0  0  0  0  0  0  0  0
   14.6280  -14.2390    9.6500 O   0  0  0  0  0  0  0  0  0  0  0  0
   14.8810  -15.8060    9.5440 P   0  0  0  0  0  0  0  0  0  0  0  0
   13.7230  -16.3010    8.7560 O   0  0  0  0  0  0  0  0  0  0  0  0
   16.3580  -16.0280    8.9720 O   0  0  0  0  0  0  0  0  0  0  0  0
   14.7730  -16.3320   11.0540 O   0  0  0  0  0  0  0  0  0  0  0  0
   15.2990  -10.9490   11.9540 O   0  0  0  0  0  0  0  0  0  0  0  0
   16.1250  -11.1840   12.3590 H   0  0  0  0  0  0  0  0  0  0  0  0
  1 18  1  6  0  0  0
  1  2  1  0  0  0  0
  1  3  1  0  0  0  0
  2  5  1  0  0  0  0
  3  4  1  0  0  0  0
  3 24  1  1  0  0  0
  4  5  1  0  0  0  0
  4 16  1  1  0  0  0
  5  6  1  6  0  0  0
  6  7  1  0  0  0  0
  6 13  1  0  0  0  0
  7  8  1  0  0  0  0
  8  9  1  0  0  0  0
  8 10  2  0  0  0  0
 10 11  1  0  0  0  0
 10 12  1  0  0  0  0
 12 14  1  0  0  0  0
 12 13  1  0  0  0  0
 13 15  2  0  0  0  0
 16 17  1  0  0  0  0
 18 19  1  0  0  0  0
 19 20  1  0  0  0  0
 20 21  2  0  0  0  0
 20 22  1  0  0  0  0
 20 23  1  0  0  0  0
 24 25  1  0  0  0  0
M  END
>  <MODEL>
1

>  <REMARK>
 VINA RESULT:    -8.495      0.000      0.000
 INTER + INTRA:         -11.737
 INTER:                 -10.979
 INTRA:                  -0.758
 UNBOUND:                -0.758
  6 active torsions:
  status: ('A' for Active; 'I' for Inactive)
    1  A    between atoms: P_1  and  O_5 
    2  A    between atoms: O_5  and  C_6 
    3  A    between atoms: C_6  and  C_7 
    4  A    between atoms: C_9  and  O_10 
    5  A    between atoms: C_12  and  O_13 
    6  A    between atoms: C_15  and  N_16 

>  <COMPND>
    /home/daniil/Downloads/ml_docking_review/databases/Vina/outputs/6XBO_5MC/6XBO_5MC.pdbqt 

>  <AUTHOR>
    GENERATED BY OPEN BABEL 3.2.1

>  <MASTER>
        0    0    0    0    0    0    0    0   25    0   25    0

$$$$
