../../databases/Vina/outputs/7L5F_XNG/7L5F_XNG1.pdb
 OpenBabel08242616453D

 19 18  0  0  0  0  0  0  0  0999 V2000
   10.7430   34.6160   23.8260 C   0  0  0  0  0  0  0  0  0  0  0  0
   10.8850   34.4530   25.1420 N   0  0  0  0  0  0  0  0  0  0  0  0
   10.3480   33.7490   25.6490 H   0  0  0  0  0  0  0  0  0  0  0  0
   11.5230   35.3080   23.1650 O   0  0  0  0  0  0  0  0  0  0  0  0
    9.5770   33.9270   23.1600 C   0  0  0  0  0  0  0  0  0  0  0  0
    8.3200   34.1050   24.0100 C   0  0  0  0  0  0  0  0  0  0  0  0
    7.2720   34.8580   23.2030 C   0  0  0  0  0  0  0  0  0  0  0  0
    7.8110   35.5610   21.9690 C   0  0  0  0  0  0  0  0  0  0  0  0
    8.1830   36.9810   22.3610 C   0  0  0  0  0  0  0  0  0  0  0  0
    9.1920   37.5290   21.3740 C   0  0  0  0  0  0  0  0  0  0  0  0
    9.7070   38.8710   21.8870 C   0  0  0  0  0  0  0  0  0  0  0  0
   10.8680   38.6760   22.8400 C   0  0  0  0  0  0  0  0  0  0  0  0
   12.1470   38.9840   22.0950 C   0  0  0  0  0  0  0  0  0  0  0  0
   11.8350   35.3190   25.8300 C   0  0  0  0  0  0  0  0  0  0  0  0
   11.2450   36.0010   27.0560 C   0  0  0  0  0  0  0  0  0  0  0  0
   10.5050   34.9750   27.9060 C   0  0  0  0  0  0  0  0  0  0  0  0
   11.5230   34.4540   28.8990 C   0  0  0  0  0  0  0  0  0  0  0  0
   11.6660   35.1400   29.9140 O   0  0  0  0  0  0  0  0  0  0  0  0
   12.1500   33.3890   28.6920 O   0  0  0  0  0  0  0  0  0  0  0  0
  1  5  1  0  0  0  0
  1  4  2  0  0  0  0
  1  2  1  0  0  0  0
  2  3  1  0  0  0  0
  2 14  1  0  0  0  0
  5  6  1  0  0  0  0
  6  7  1  0  0  0  0
  7  8  1  0  0  0  0
  8  9  1  0  0  0  0
  9 10  1  0  0  0  0
 10 11  1  0  0  0  0
 11 12  1  0  0  0  0
 12 13  1  0  0  0  0
 14 15  1  0  0  0  0
 15 16  1  0  0  0  0
 16 17  1  0  0  0  0
 17 19  2  0  0  0  0
 17 18  1  0  0  0  0
M  END
>  <MODEL>
1

>  <REMARK>
 VINA RESULT:    -6.398      0.000      0.000
 INTER + INTRA:         -11.799
 INTER:                 -10.887
 INTRA:                  -0.912
 UNBOUND:                -0.912
  12 active torsions:
  status: ('A' for Active; 'I' for Inactive)
    1  A    between atoms: C_1  and  C_10 
    2  A    between atoms: C_1  and  N_15 
    3  A    between atoms: C_2  and  C_3 
    4  A    between atoms: C_2  and  C_14 
    5  A    between atoms: C_3  and  C_4 
    6  A    between atoms: C_4  and  C_5 
    7  A    between atoms: C_5  and  C_6 
    8  A    between atoms: C_6  and  C_7 
    9  A    between atoms: C_7  and  C_8 
   10  A    between atoms: C_10  and  C_11 
   11  A    between atoms: C_11  and  C_12 
   12  A    between atoms: C_13  and  C_14 
       I    between atoms: C_13  and  N_15 

>  <COMPND>
    /home/daniil/Downloads/ml_docking_review/databases/Vina/outputs/7L5F_XNG/7L5F_XNG.pdbqt 

>  <AUTHOR>
    GENERATED BY OPEN BABEL 3.2.1

>  <MASTER>
        0    0    0    0    0    0    0    0   19    0   19    0

$$$$
