../../databases/Vina/outputs/7UP3_NZ0/7UP3_NZ01.pdb
 OpenBabel08242616453D

 31 33  0  0  1  0  0  0  0  0999 V2000
   -2.8210   -0.1410   -9.7020 C   0  0  0  0  0  0  0  0  0  0  0  0
   -2.1630    0.5540   -8.6310 C   0  0  0  0  0  0  0  0  0  0  0  0
   -3.4010    0.6210  -10.7210 C   0  0  0  0  0  0  0  0  0  0  0  0
   -0.5240   -1.4960   -6.1910 N   0  0  0  0  0  0  0  0  0  0  0  0
    0.1490   -2.1720   -5.8280 H   0  0  0  0  0  0  0  0  0  0  0  0
   -1.3950   -0.9210   -5.4820 N   0  0  0  0  0  0  0  0  0  0  0  0
   -1.5540   -1.0570   -4.4840 H   0  0  0  0  0  0  0  0  0  0  0  0
   -2.0940   -0.0680   -6.3250 N   0  0  0  0  0  0  0  0  0  0  0  0
   -2.8650    0.5420   -6.0550 H   0  0  0  0  0  0  0  0  0  0  0  0
   -2.0870    1.9840   -8.7280 C   0  0  1  0  0  0  0  0  0  0  0  0
   -1.5830   -0.1880   -7.5410 C   0  0  0  0  0  0  0  0  0  0  0  0
   -0.5800   -1.1230   -7.4560 N   0  0  0  0  0  0  0  0  0  0  0  0
    0.0050   -1.4630   -8.2190 H   0  0  0  0  0  0  0  0  0  0  0  0
   -2.6680    2.6800   -9.6660 N   0  0  0  0  0  0  0  0  0  0  0  0
   -2.6100    3.6990   -9.6670 H   0  0  0  0  0  0  0  0  0  0  0  0
   -3.3610    2.0150  -10.6570 C   0  0  0  0  0  0  0  0  0  0  0  0
   -2.7860   -1.6290   -9.7780 C   0  0  0  0  0  0  0  0  0  0  0  0
   -3.6920   -2.4330   -9.0600 C   0  0  0  0  0  0  0  0  0  0  0  0
   -3.6570   -3.8250   -9.1410 C   0  0  0  0  0  0  0  0  0  0  0  0
   -2.7300   -4.4820   -9.9560 C   0  0  0  0  0  0  0  0  0  0  0  0
   -1.8260   -3.6920  -10.6930 C   0  0  0  0  0  0  0  0  0  0  0  0
   -1.8620   -2.2960  -10.5920 C   0  0  0  0  0  0  0  0  0  0  0  0
   -2.7270   -5.9900  -10.0140 C   0  0  0  0  0  0  0  0  0  0  0  0
   -3.9250   -6.5980  -10.4410 O   0  0  0  0  0  0  0  0  0  0  0  0
   -4.3510   -6.2030  -11.1930 H   0  0  0  0  0  0  0  0  0  0  0  0
   -1.2910    3.1220   -7.6150 S   0  0  0  0  0  0  0  0  0  0  0  0
   -1.7960    2.9390   -6.2760 O   0  0  0  0  0  0  0  0  0  0  0  0
   -1.5330    4.4100   -8.2220 O   0  0  0  0  0  0  0  0  0  0  0  0
    0.3070    2.8720   -7.5550 N   0  0  0  0  0  0  0  0  0  0  0  0
    0.8100    2.4150   -6.7950 H   0  0  0  0  0  0  0  0  0  0  0  0
    0.7000    3.2580   -8.4140 H   0  0  0  0  0  0  0  0  0  0  0  0
  1  3  1  0  0  0  0
  1 17  1  0  0  0  0
  1  2  2  0  0  0  0
  2 10  1  0  0  0  0
  2 11  1  0  0  0  0
  3 16  2  0  0  0  0
  4 12  1  0  0  0  0
  4  5  1  0  0  0  0
  4  6  1  0  0  0  0
  6  8  1  0  0  0  0
  6  7  1  0  0  0  0
  8 11  1  0  0  0  0
  8  9  1  0  0  0  0
 10 14  1  0  0  0  0
 10 26  1  1  0  0  0
 11 12  1  0  0  0  0
 12 13  1  0  0  0  0
 14 16  1  0  0  0  0
 14 15  1  0  0  0  0
 17 22  2  0  0  0  0
 17 18  1  0  0  0  0
 18 19  2  0  0  0  0
 19 20  1  0  0  0  0
 20 21  2  0  0  0  0
 20 23  1  0  0  0  0
 21 22  1  0  0  0  0
 23 24  1  0  0  0  0
 24 25  1  0  0  0  0
 26 28  2  0  0  0  0
 26 29  1  0  0  0  0
 26 27  2  0  0  0  0
 29 31  1  0  0  0  0
 29 30  1  0  0  0  0
M  END
>  <MODEL>
1

>  <REMARK>
 VINA RESULT:    -6.456      0.000      0.000
 INTER + INTRA:          -8.768
 INTER:                  -7.966
 INTRA:                  -0.803
 UNBOUND:                -0.803
  5 active torsions:
  status: ('A' for Active; 'I' for Inactive)
    1  A    between atoms: C_2  and  C_3 
    2  A    between atoms: O_7  and  C_12 
    3  A    between atoms: C_12  and  C_30 
    4  A    between atoms: C_17  and  S_18 
    5  A    between atoms: S_18  and  N_20 

>  <COMPND>
    /home/daniil/Downloads/ml_docking_review/databases/Vina/outputs/7UP3_NZ0/7UP3_NZ0.pdbqt 

>  <AUTHOR>
    GENERATED BY OPEN BABEL 3.2.1

>  <MASTER>
        0    0    0    0    0    0    0    0   31    0   31    0

$$$$
