../../databases/Vina/outputs/6Z4N_Q7B/6Z4N_Q7B1.pdb
 OpenBabel08242616453D

 20 22  0  0  1  0  0  0  0  0999 V2000
   24.1350   11.1080   64.6870 C   0  0  2  0  0  0  0  0  0  0  0  0
   25.5200   10.8150   65.0960 C   0  0  0  0  0  0  0  0  0  0  0  0
   24.5590   11.4320   66.1100 C   0  0  1  0  0  0  0  0  0  0  0  0
   23.2140    9.9120   64.4570 C   0  0  0  0  0  0  0  0  0  0  0  0
   23.0830    9.5040   63.2670 O   0  0  0  0  0  0  0  0  0  0  0  0
   22.7150    9.3490   65.4540 O   0  0  0  0  0  0  0  0  0  0  0  0
   23.9970   12.2100   63.6340 C   0  0  0  0  0  0  0  0  0  0  0  0
   22.6350   12.7350   63.4960 C   0  0  0  0  0  0  0  0  0  0  0  0
   22.0990   12.9710   62.2190 C   0  0  0  0  0  0  0  0  0  0  0  0
   20.8240   13.4780   62.0390 C   0  0  0  0  0  0  0  0  0  0  0  0
   20.0310   13.7680   63.1170 C   0  0  0  0  0  0  0  0  0  0  0  0
   18.7470   14.3120   62.9170 C   0  0  0  0  0  0  0  0  0  0  0  0
   20.5410   13.5960   64.3850 C   0  0  0  0  0  0  0  0  0  0  0  0
   21.8170   13.0450   64.5860 C   0  0  0  0  0  0  0  0  0  0  0  0
   24.6490   12.8070   66.5830 C   0  0  0  0  0  0  0  0  0  0  0  0
   23.6260   13.3130   67.4020 C   0  0  0  0  0  0  0  0  0  0  0  0
   23.6320   14.5800   67.8770 C   0  0  0  0  0  0  0  0  0  0  0  0
   24.6760   15.4170   67.6070 C   0  0  0  0  0  0  0  0  0  0  0  0
   25.6930   14.9330   66.8080 C   0  0  0  0  0  0  0  0  0  0  0  0
   25.7100   13.6690   66.3210 C   0  0  0  0  0  0  0  0  0  0  0  0
  1  7  1  6  0  0  0
  1  4  1  0  0  0  0
  1  2  1  0  0  0  0
  1  3  1  0  0  0  0
  2  3  1  0  0  0  0
  3 15  1  6  0  0  0
  4  5  2  0  0  0  0
  4  6  1  0  0  0  0
  7  8  1  0  0  0  0
  8  9  2  0  0  0  0
  8 14  1  0  0  0  0
  9 10  1  0  0  0  0
 10 11  2  0  0  0  0
 11 12  1  0  0  0  0
 11 13  1  0  0  0  0
 13 14  2  0  0  0  0
 15 20  2  0  0  0  0
 15 16  1  0  0  0  0
 16 17  2  0  0  0  0
 17 18  1  0  0  0  0
 18 19  2  0  0  0  0
 19 20  1  0  0  0  0
M  END
>  <MODEL>
1

>  <REMARK>
 VINA RESULT:    -8.601      0.000      0.000
 INTER + INTRA:         -11.281
 INTER:                 -10.612
 INTRA:                  -0.669
 UNBOUND:                -0.669
  4 active torsions:
  status: ('A' for Active; 'I' for Inactive)
    1  A    between atoms: C_7  and  C_8 
    2  A    between atoms: C_8  and  C_9 
    3  A    between atoms: C_9  and  C_10 
    4  A    between atoms: C_14  and  C_15 

>  <COMPND>
    /home/daniil/Downloads/ml_docking_review/databases/Vina/outputs/6Z4N_Q7B/6Z4N_Q7B.pdbqt 

>  <AUTHOR>
    GENERATED BY OPEN BABEL 3.2.1

>  <MASTER>
        0    0    0    0    0    0    0    0   20    0   20    0

$$$$
