../../databases/Vina/outputs/6YRV_PJ8/6YRV_PJ81.pdb
 OpenBabel08242616453D

 17 16  0  0  0  0  0  0  0  0999 V2000
   22.4770   54.9230   21.5900 C   0  0  0  0  0  0  0  0  0  0  0  0
   23.2210   55.6830   20.5240 C   0  0  0  0  0  0  0  0  0  0  0  0
   22.3750   56.0910   19.2860 C   0  0  0  0  0  0  0  0  0  0  0  0
   22.3370   55.0970   18.1340 C   0  0  0  0  0  0  0  0  0  0  0  0
   23.6850   54.4380   17.8860 C   0  0  0  0  0  0  0  0  0  0  0  0
   24.7570   55.1660   17.1760 C   0  0  0  0  0  0  0  0  0  0  0  0
   25.4910   54.2550   16.2400 C   0  0  0  0  0  0  0  0  0  0  0  0
   25.0110   52.8610   16.0370 C   0  0  0  0  0  0  0  0  0  0  0  0
   25.9540   51.9350   15.3780 C   0  0  0  0  0  0  0  0  0  0  0  0
   23.1690   53.9390   22.5010 C   0  0  0  0  0  0  0  0  0  0  0  0
   22.1270   53.0010   22.9840 C   0  0  0  0  0  0  0  0  0  0  0  0
   22.2340   52.4900   24.3230 C   0  0  0  0  0  0  0  0  0  0  0  0
   22.4320   51.0570   24.4750 C   0  0  0  0  0  0  0  0  0  0  0  0
   23.4860   50.4040   23.7180 C   0  0  0  0  0  0  0  0  0  0  0  0
   23.1950   49.0740   23.0920 C   0  0  0  0  0  0  0  0  0  0  0  0
   21.7520   49.1010   22.6340 C   0  0  0  0  0  0  0  0  0  0  0  0
   21.2950   47.9040   21.8730 C   0  0  0  0  0  0  0  0  0  0  0  0
  1  2  1  0  0  0  0
  1 10  1  0  0  0  0
  2  3  1  0  0  0  0
  3  4  1  0  0  0  0
  4  5  1  0  0  0  0
  5  6  1  0  0  0  0
  6  7  1  0  0  0  0
  7  8  2  0  0  0  0
  8  9  1  0  0  0  0
 10 11  1  0  0  0  0
 11 12  1  0  0  0  0
 12 13  1  0  0  0  0
 13 14  1  0  0  0  0
 14 15  1  0  0  0  0
 15 16  1  0  0  0  0
 16 17  1  0  0  0  0
M  END
>  <MODEL>
1

>  <REMARK>
 VINA RESULT:    -7.702      0.000      0.000
 INTER + INTRA:         -14.953
 INTER:                 -14.005
 INTRA:                  -0.947
 UNBOUND:                -0.947
  14 active torsions:
  status: ('A' for Active; 'I' for Inactive)
    1  A    between atoms: C_2  and  C_3 
    2  A    between atoms: C_3  and  C_4 
    3  A    between atoms: C_4  and  C_5 
    4  A    between atoms: C_5  and  C_6 
    5  A    between atoms: C_6  and  C_7 
    6  A    between atoms: C_7  and  C_8 
    7  A    between atoms: C_8  and  C_9 
    8  A    between atoms: C_9  and  C_10 
    9  A    between atoms: C_10  and  C_11 
   10  A    between atoms: C_11  and  C_12 
   11  A    between atoms: C_12  and  C_13 
   12  A    between atoms: C_13  and  C_14 
   13  A    between atoms: C_14  and  C_15 
   14  A    between atoms: C_15  and  C_16 

>  <COMPND>
    /home/daniil/Downloads/ml_docking_review/databases/Vina/outputs/6YRV_PJ8/6YRV_PJ8.pdbqt 

>  <AUTHOR>
    GENERATED BY OPEN BABEL 3.2.1

>  <MASTER>
        0    0    0    0    0    0    0    0   17    0   17    0

$$$$
