../../databases/Vina/outputs/8BTI_RFO/8BTI_RFO1.pdb
 OpenBabel08242612033D

 15 16  0  0  0  0  0  0  0  0999 V2000
   24.7850   67.7940   72.0670 C   0  0  0  0  0  0  0  0  0  0  0  0
   26.0040   65.6790   71.3870 C   0  0  0  0  0  0  0  0  0  0  0  0
   27.4370   65.2600   71.3160 C   0  0  0  0  0  0  0  0  0  0  0  0
   28.1860   66.4070   72.0050 C   0  0  0  0  0  0  0  0  0  0  0  0
   29.5080   66.5190   72.4390 C   0  0  0  0  0  0  0  0  0  0  0  0
   29.9820   67.6720   73.1080 C   0  0  0  0  0  0  0  0  0  0  0  0
   29.0730   68.7100   73.3490 C   0  0  0  0  0  0  0  0  0  0  0  0
   27.7630   68.6470   72.9250 C   0  0  0  0  0  0  0  0  0  0  0  0
   27.3040   67.4630   72.2580 C   0  0  0  0  0  0  0  0  0  0  0  0
   25.9730   67.0680   71.8380 N   0  0  0  0  0  0  0  0  0  0  0  0
   24.8510   68.9320   72.4580 O   0  0  0  0  0  0  0  0  0  0  0  0
   30.5230   65.1670   72.0860 Cl  0  0  0  0  0  0  0  0  0  0  0  0
   23.5280   67.1030   71.7140 C   0  0  0  0  0  0  0  0  0  0  0  0
   22.4980   68.0700   71.8020 O   0  0  0  0  0  0  0  0  0  0  0  0
   21.2710   67.5490   72.2810 C   0  0  0  0  0  0  0  0  0  0  0  0
  1 13  1  0  0  0  0
  1 10  1  0  0  0  0
  1 11  2  0  0  0  0
  2  3  2  0  0  0  0
  2 10  1  0  0  0  0
  3  4  1  0  0  0  0
  4  9  2  0  0  0  0
  4  5  1  0  0  0  0
  5 12  1  0  0  0  0
  5  6  2  0  0  0  0
  6  7  1  0  0  0  0
  7  8  2  0  0  0  0
  8  9  1  0  0  0  0
  9 10  1  0  0  0  0
 13 14  1  0  0  0  0
 14 15  1  0  0  0  0
M  END
>  <MODEL>
1

>  <REMARK>
 VINA RESULT:    -8.212      0.000      0.000
 INTER + INTRA:          -9.265
 INTER:                  -9.172
 INTRA:                  -0.094
 UNBOUND:                -0.094
  2 active torsions:
  status: ('A' for Active; 'I' for Inactive)
    1  A    between atoms: C_2  and  C_3 
    2  A    between atoms: C_2  and  O_13 
       I    between atoms: C_3  and  N_12 

>  <COMPND>
    /home/daniil/Downloads/ml_docking_review/databases/Vina/outputs/8BTI_RFO/8BTI_RFO.pdbqt 

>  <AUTHOR>
    GENERATED BY OPEN BABEL 3.2.1

>  <MASTER>
        0    0    0    0    0    0    0    0   15    0   15    0

$$$$
