../../databases/Vina/outputs/7RH3_59O/7RH3_59O1.pdb
 OpenBabel08242616453D

 36 38  0  0  1  0  0  0  0  0999 V2000
   18.1950   -7.2260   -0.7750 C   0  0  2  0  0  0  0  0  0  0  0  0
   17.8820   -8.4660   -1.5520 C   0  0  1  0  0  0  0  0  0  0  0  0
   20.3200   -8.7860   -1.8110 C   0  0  1  0  0  0  0  0  0  0  0  0
   19.0130   -9.4990   -1.5960 C   0  0  1  0  0  0  0  0  0  0  0  0
   19.5790   -6.6960   -1.1070 C   0  0  2  0  0  0  0  0  0  0  0  0
   20.5590   -7.7220   -0.8760 O   0  0  0  0  0  0  0  0  0  0  0  0
   19.1250  -10.1750   -0.3110 O   0  0  0  0  0  0  0  0  0  0  0  0
   18.8970  -11.4810   -0.2920 C   0  0  0  0  0  0  0  0  0  0  0  0
   19.2630  -12.2340   -1.1850 O   0  0  0  0  0  0  0  0  0  0  0  0
   18.3170  -11.9550    1.0050 C   0  0  0  0  0  0  0  0  0  0  0  0
   18.9310  -12.8230    1.9060 C   0  0  0  0  0  0  0  0  0  0  0  0
   18.4080  -13.1100    3.1420 C   0  0  0  0  0  0  0  0  0  0  0  0
   17.1950  -12.5350    3.4750 C   0  0  0  0  0  0  0  0  0  0  0  0
   16.5260  -11.6920    2.6170 C   0  0  0  0  0  0  0  0  0  0  0  0
   16.5750  -12.8480    5.0250 Cl  0  0  0  0  0  0  0  0  0  0  0  0
   17.0940  -11.4020    1.3840 C   0  0  0  0  0  0  0  0  0  0  0  0
   20.2220  -13.4320    1.5590 N   0  0  0  0  0  0  0  0  0  0  0  0
   21.2440  -12.8160    1.9420 O   0  0  0  0  0  0  0  0  0  0  0  0
   20.2640  -14.5420    1.0060 O   0  0  0  0  0  0  0  0  0  0  0  0
   16.6850   -8.9690   -0.9040 O   0  0  0  0  0  0  0  0  0  0  0  0
   15.5250   -8.6760   -1.4410 C   0  0  0  0  0  0  0  0  0  0  0  0
   15.4070   -8.4360   -2.5950 O   0  0  0  0  0  0  0  0  0  0  0  0
   14.3910   -8.7210   -0.4640 C   0  0  0  0  0  0  0  0  0  0  0  0
   13.0750   -8.8320   -0.9160 C   0  0  0  0  0  0  0  0  0  0  0  0
   12.0390   -8.8910   -0.0070 C   0  0  0  0  0  0  0  0  0  0  0  0
   12.2790   -8.8350    1.3510 C   0  0  0  0  0  0  0  0  0  0  0  0
   13.5640   -8.7280    1.7790 C   0  0  0  0  0  0  0  0  0  0  0  0
   11.1380   -8.8240    2.3100 C   0  0  0  0  0  0  0  0  0  0  0  0
   14.6260   -8.6810    0.9070 C   0  0  0  0  0  0  0  0  0  0  0  0
   21.3380   -9.7390   -1.6790 O   0  0  0  0  0  0  0  0  0  0  0  0
   22.6290   -9.1640   -1.6200 C   0  0  0  0  0  0  0  0  0  0  0  0
   18.0860   -7.5260    0.6200 O   0  0  0  0  0  0  0  0  0  0  0  0
   17.5950   -6.8290    1.0390 H   0  0  0  0  0  0  0  0  0  0  0  0
   19.9450   -5.5380   -0.2120 C   0  0  0  0  0  0  0  0  0  0  0  0
   21.3500   -5.3210   -0.1500 O   0  0  0  0  0  0  0  0  0  0  0  0
   21.7730   -5.8650    0.5030 H   0  0  0  0  0  0  0  0  0  0  0  0
  1  2  1  0  0  0  0
  1  5  1  0  0  0  0
  1 32  1  1  0  0  0
  2  4  1  0  0  0  0
  2 20  1  1  0  0  0
  3 30  1  1  0  0  0
  3  4  1  0  0  0  0
  3  6  1  0  0  0  0
  4  7  1  1  0  0  0
  5  6  1  0  0  0  0
  5 34  1  1  0  0  0
  7  8  1  0  0  0  0
  8  9  2  0  0  0  0
  8 10  1  0  0  0  0
 10 16  2  0  0  0  0
 10 11  1  0  0  0  0
 11 17  1  0  0  0  0
 11 12  2  0  0  0  0
 12 13  1  0  0  0  0
 13 14  2  0  0  0  0
 13 15  1  0  0  0  0
 14 16  1  0  0  0  0
 17 19  2  0  0  0  0
 17 18  2  0  0  0  0
 20 21  1  0  0  0  0
 21 22  2  0  0  0  0
 21 23  1  0  0  0  0
 23 24  2  0  0  0  0
 23 29  1  0  0  0  0
 24 25  1  0  0  0  0
 25 26  2  0  0  0  0
 26 27  1  0  0  0  0
 26 28  1  0  0  0  0
 27 29  2  0  0  0  0
 30 31  1  0  0  0  0
 32 33  1  0  0  0  0
 34 35  1  0  0  0  0
 35 36  1  0  0  0  0
M  END
>  <MODEL>
1

>  <REMARK>
 VINA RESULT:    -7.589      0.000      0.000
 INTER + INTRA:         -14.025
 INTER:                 -12.026
 INTRA:                  -1.999
 UNBOUND:                -1.999
  11 active torsions:
  status: ('A' for Active; 'I' for Inactive)
    1  A    between atoms: C_2  and  O_16 
    2  A    between atoms: C_2  and  C_22 
    3  A    between atoms: O_3  and  C_5 
    4  A    between atoms: C_5  and  C_11 
    5  A    between atoms: C_7  and  O_17 
    6  A    between atoms: C_8  and  O_16 
    7  A    between atoms: C_9  and  O_13 
    8  A    between atoms: C_10  and  O_14 
    9  A    between atoms: O_14  and  C_15 
   10  A    between atoms: C_15  and  C_21 
   11  A    between atoms: C_29  and  N_32 

>  <COMPND>
    /home/daniil/Downloads/ml_docking_review/databases/Vina/outputs/7RH3_59O/7RH3_59O.pdbqt 

>  <AUTHOR>
    GENERATED BY OPEN BABEL 3.2.1

>  <MASTER>
        0    0    0    0    0    0    0    0   36    0   36    0

$$$$
