../../databases/Vina/outputs/8H0M_2EH/8H0M_2EH1.pdb
 OpenBabel08242616453D

 10  9  0  0  1  0  0  0  0  0999 V2000
   33.1250   17.1500   15.5360 C   0  0  1  0  0  0  0  0  0  0  0  0
   32.7560   15.8950   16.3320 C   0  0  0  0  0  0  0  0  0  0  0  0
   32.0780   16.1960   17.5630 O   0  0  0  0  0  0  0  0  0  0  0  0
   32.6090   16.7120   18.1590 H   0  0  0  0  0  0  0  0  0  0  0  0
   34.6270   17.1400   15.2620 C   0  0  0  0  0  0  0  0  0  0  0  0
   35.3370   17.7640   16.4510 C   0  0  0  0  0  0  0  0  0  0  0  0
   32.3330   17.2450   14.2250 C   0  0  0  0  0  0  0  0  0  0  0  0
   30.8980   17.6860   14.5200 C   0  0  0  0  0  0  0  0  0  0  0  0
   29.9180   16.7110   13.8800 C   0  0  0  0  0  0  0  0  0  0  0  0
   28.6230   16.6270   14.6830 C   0  0  0  0  0  0  0  0  0  0  0  0
  1  7  1  6  0  0  0
  1  5  1  0  0  0  0
  1  2  1  0  0  0  0
  2  3  1  0  0  0  0
  3  4  1  0  0  0  0
  5  6  1  0  0  0  0
  7  8  1  0  0  0  0
  8  9  1  0  0  0  0
  9 10  1  0  0  0  0
M  END
>  <MODEL>
1

>  <REMARK>
 VINA RESULT:    -4.548      0.000      0.000
 INTER + INTRA:          -6.206
 INTER:                  -6.010
 INTRA:                  -0.196
 UNBOUND:                -0.196
  6 active torsions:
  status: ('A' for Active; 'I' for Inactive)
    1  A    between atoms: C_1  and  C_5 
    2  A    between atoms: C_1  and  O_6 
    3  A    between atoms: C_2  and  C_5 
    4  A    between atoms: C_4  and  C_8 
    5  A    between atoms: C_4  and  C_9 
    6  A    between atoms: C_5  and  C_8 

>  <COMPND>
    /home/daniil/Downloads/ml_docking_review/databases/Vina/outputs/8H0M_2EH/8H0M_2EH.pdbqt 

>  <AUTHOR>
    GENERATED BY OPEN BABEL 3.2.1

>  <MASTER>
        0    0    0    0    0    0    0    0   10    0   10    0

$$$$
