../../databases/Vina/outputs/7RWO_7WN/7RWO_7WN1.pdb
 OpenBabel08242616453D

 25 27  0  0  0  0  0  0  0  0999 V2000
    6.7230    0.1420    0.3620 N   0  0  0  0  0  0  0  0  0  0  0  0
    7.7300    0.2820    0.2860 H   0  0  0  0  0  0  0  0  0  0  0  0
    6.2690   -0.7750    1.3780 C   0  0  0  0  0  0  0  0  0  0  0  0
    5.4450   -1.7980    1.0510 C   0  0  0  0  0  0  0  0  0  0  0  0
    4.9790   -2.6490    2.0310 C   0  0  0  0  0  0  0  0  0  0  0  0
    5.3760   -2.4630    3.3910 C   0  0  0  0  0  0  0  0  0  0  0  0
    4.8670   -3.4280    4.4040 C   0  0  0  0  0  0  0  0  0  0  0  0
    6.1890   -1.4740    3.7020 C   0  0  0  0  0  0  0  0  0  0  0  0
    5.6210   -3.3790    5.7190 C   0  0  0  0  0  0  0  0  0  0  0  0
    5.8780   -2.0020    6.1690 N   0  0  0  0  0  4  0  0  0  0  0  0
    6.6560   -1.2100    5.1650 C   0  0  0  0  0  0  0  0  0  0  0  0
    5.0100   -1.5290    6.4180 H   0  0  0  0  0  0  0  0  0  0  0  0
    6.3360   -1.9930    7.0800 H   0  0  0  0  0  0  0  0  0  0  0  0
    6.6530   -0.5760    2.6890 C   0  0  0  0  0  0  0  0  0  0  0  0
    5.8960    0.8780   -0.5520 C   0  0  0  0  0  0  0  0  0  0  0  0
    5.8930    0.4760   -1.8960 C   0  0  0  0  0  0  0  0  0  0  0  0
    6.9250   -0.8670   -2.4320 Cl  0  0  0  0  0  0  0  0  0  0  0  0
    5.0670    1.1640   -2.7770 C   0  0  0  0  0  0  0  0  0  0  0  0
    4.3370    2.1650   -2.3620 N   0  0  0  0  0  0  0  0  0  0  0  0
    3.4770    2.8690   -3.3090 C   0  0  0  0  0  0  0  0  0  0  0  0
    4.3520    2.5280   -1.0760 N   0  0  0  0  0  0  0  0  0  0  0  0
    5.0770    1.9280   -0.1610 C   0  0  0  0  0  0  0  0  0  0  0  0
    3.7680    3.3140   -0.7910 H   0  0  0  0  0  0  0  0  0  0  0  0
    5.0460    0.8070   -4.1070 O   0  0  0  0  0  0  0  0  0  0  0  0
    4.2290    0.5260   -4.5040 H   0  0  0  0  0  0  0  0  0  0  0  0
  1 15  1  0  0  0  0
  1  2  1  0  0  0  0
  1  3  1  0  0  0  0
  3  4  2  0  0  0  0
  3 14  1  0  0  0  0
  4  5  1  0  0  0  0
  5  6  2  0  0  0  0
  6  8  1  0  0  0  0
  6  7  1  0  0  0  0
  7  9  1  0  0  0  0
  8 14  2  0  0  0  0
  8 11  1  0  0  0  0
  9 10  1  0  0  0  0
 10 11  1  0  0  0  0
 10 12  1  0  0  0  0
 10 13  1  0  0  0  0
 15 16  1  0  0  0  0
 15 22  2  0  0  0  0
 16 18  2  0  0  0  0
 16 17  1  0  0  0  0
 18 24  1  0  0  0  0
 18 19  1  0  0  0  0
 19 20  1  0  0  0  0
 19 21  1  0  0  0  0
 21 23  1  0  0  0  0
 21 22  1  0  0  0  0
 24 25  1  0  0  0  0
M  END
>  <MODEL>
1

>  <REMARK>
 VINA RESULT:    -8.244      0.000      0.000
 INTER + INTRA:          -9.864
 INTER:                  -9.449
 INTRA:                  -0.415
 UNBOUND:                -0.415
  3 active torsions:
  status: ('A' for Active; 'I' for Inactive)
    1  A    between atoms: C_10  and  O_23 
    2  A    between atoms: C_12  and  N_18 
    3  A    between atoms: C_13  and  N_18 

>  <COMPND>
    /home/daniil/Downloads/ml_docking_review/databases/Vina/outputs/7RWO_7WN/7RWO_7WN.pdbqt 

>  <AUTHOR>
    GENERATED BY OPEN BABEL 3.2.1

>  <MASTER>
        0    0    0    0    0    0    0    0   25    0   25    0

$$$$
