../../databases/Vina/outputs/7SCW_GSP/7SCW_GSP1.pdb
 OpenBabel08242612033D

 39 41  0  0  1  0  0  0  0  0999 V2000
   27.8900   23.1420   -3.5430 C   0  0  1  0  0  0  0  0  0  0  0  0
   29.2760   23.0470   -3.2610 O   0  0  0  0  0  0  0  0  0  0  0  0
   27.6640   24.5620   -4.0340 C   0  0  2  0  0  0  0  0  0  0  0  0
   29.0070   24.9910   -4.5890 C   0  0  2  0  0  0  0  0  0  0  0  0
   29.9590   24.2620   -3.6050 C   0  0  2  0  0  0  0  0  0  0  0  0
   31.2500   23.8710   -4.1890 N   0  0  0  0  0  0  0  0  0  0  0  0
   32.4690   24.3150   -3.8350 C   0  0  0  0  0  0  0  0  0  0  0  0
   32.7830   25.2440   -2.9030 N   0  0  0  0  0  0  0  0  0  0  0  0
   33.4260   23.6850   -4.6560 C   0  0  0  0  0  0  0  0  0  0  0  0
   34.1030   25.5340   -2.7840 C   0  0  2  0  0  0  0  0  0  0  0  0
   32.0730   25.6970   -2.3280 H   0  0  0  0  0  0  0  0  0  0  0  0
   35.1040   24.9280   -3.5470 N   0  0  0  0  0  0  0  0  0  0  0  0
   34.7970   23.9820   -4.4950 C   0  0  0  0  0  0  0  0  0  0  0  0
   36.0780   25.1920   -3.3990 H   0  0  0  0  0  0  0  0  0  0  0  0
   35.7490   23.4250   -5.1140 O   0  0  0  0  0  0  0  0  0  0  0  0
   32.7490   22.8180   -5.4580 N   0  0  0  0  0  0  0  0  0  0  0  0
   31.4270   22.9540   -5.2050 C   0  0  0  0  0  0  0  0  0  0  0  0
   33.1660   22.1770   -6.1330 H   0  0  0  0  0  0  0  0  0  0  0  0
   34.4090   26.4150   -1.8770 N   0  0  0  0  0  0  0  0  0  0  0  0
   34.0020   26.3600   -0.9440 H   0  0  0  0  0  0  0  0  0  0  0  0
   35.0510   27.1510   -2.1720 H   0  0  0  0  0  0  0  0  0  0  0  0
   29.1960   26.3810   -4.5030 O   0  0  0  0  0  0  0  0  0  0  0  0
   28.8430   26.8380   -5.2580 H   0  0  0  0  0  0  0  0  0  0  0  0
   27.4750   22.1050   -4.5700 C   0  0  0  0  0  0  0  0  0  0  0  0
   26.9050   22.7010   -5.7470 O   0  0  0  0  0  0  0  0  0  0  0  0
   26.5780   21.8360   -7.0400 P   0  0  1  0  0  0  0  0  0  0  0  0
   25.2220   21.9620   -7.5600 O   0  0  0  0  0  0  0  0  0  0  0  0
   27.6550   22.1640   -7.9830 O   0  0  0  0  0  0  0  0  0  0  0  0
   26.7900   20.3610   -6.3980 O   0  0  0  0  0  0  0  0  0  0  0  0
   26.1310   18.9900   -6.9220 P   0  0  1  0  0  0  0  0  0  0  0  0
   26.0350   19.0170   -8.3760 O   0  0  0  0  0  0  0  0  0  0  0  0
   26.9030   17.9180   -6.2840 O   0  0  0  0  0  0  0  0  0  0  0  0
   24.7020   19.0910   -6.2690 O   0  0  0  0  0  0  0  0  0  0  0  0
   23.3110   18.5360   -6.9340 P   0  0  2  0  0  0  0  0  0  0  0  0
   23.4190   17.1280   -7.4960 O   0  0  0  0  0  0  0  0  0  0  0  0
   22.8460   19.3430   -8.0850 O   0  0  0  0  0  0  0  0  0  0  0  0
   22.0440   18.6860   -5.5340 S   0  0  0  0  0  0  0  0  0  0  0  0
   27.4560   25.3620   -2.9250 O   0  0  0  0  0  0  0  0  0  0  0  0
   27.1230   26.1830   -3.2680 H   0  0  0  0  0  0  0  0  0  0  0  0
  1 24  1  6  0  0  0
  1  3  1  0  0  0  0
  1  2  1  0  0  0  0
  2  5  1  0  0  0  0
  3  4  1  0  0  0  0
  3 38  1  1  0  0  0
  4 22  1  1  0  0  0
  4  5  1  0  0  0  0
  5  6  1  6  0  0  0
  6 17  1  0  0  0  0
  6  7  1  0  0  0  0
  7  9  2  0  0  0  0
  7  8  1  0  0  0  0
  8 10  1  0  0  0  0
  8 11  1  0  0  0  0
  9 16  1  0  0  0  0
  9 13  1  0  0  0  0
 10 12  1  0  0  0  0
 10 19  1  1  0  0  0
 12 13  1  0  0  0  0
 12 14  1  0  0  0  0
 13 15  2  0  0  0  0
 16 18  1  0  0  0  0
 16 17  1  0  0  0  0
 19 21  1  0  0  0  0
 19 20  1  0  0  0  0
 22 23  1  0  0  0  0
 24 25  1  0  0  0  0
 25 26  1  0  0  0  0
 26 28  2  6  0  0  0
 26 27  1  0  0  0  0
 26 29  1  0  0  0  0
 29 30  1  0  0  0  0
 30 31  2  6  0  0  0
 30 32  1  0  0  0  0
 30 33  1  0  0  0  0
 33 34  1  0  0  0  0
 34 36  2  6  0  0  0
 34 35  1  0  0  0  0
 34 37  1  0  0  0  0
 38 39  1  0  0  0  0
M  END
>  <MODEL>
1

>  <REMARK>
 VINA RESULT:   -11.146      0.000      0.000
 INTER + INTRA:         -18.388
 INTER:                 -17.337
 INTRA:                  -1.052
 UNBOUND:                -1.052
  11 active torsions:
  status: ('A' for Active; 'I' for Inactive)
    1  A    between atoms: P_1  and  O_2 
    2  A    between atoms: O_2  and  P_6 
    3  A    between atoms: P_6  and  O_12 
    4  A    between atoms: P_9  and  O_13 
    5  A    between atoms: P_9  and  O_12 
    6  A    between atoms: O_13  and  C_14 
    7  A    between atoms: C_14  and  C_15 
    8  A    between atoms: C_17  and  O_18 
    9  A    between atoms: C_20  and  O_21 
   10  A    between atoms: C_23  and  N_24 
   11  A    between atoms: C_33  and  N_34 

>  <COMPND>
    /home/daniil/Downloads/ml_docking_review/databases/Vina/outputs/7SCW_GSP/7SCW_GSP.pdbqt 

>  <AUTHOR>
    GENERATED BY OPEN BABEL 3.2.1

>  <MASTER>
        0    0    0    0    0    0    0    0   39    0   39    0

$$$$
