../../databases/Vina/outputs/8D19_GSH/8D19_GSH1.pdb
 OpenBabel08242612033D

 19 18  0  0  1  0  0  0  0  0999 V2000
   31.9790   23.5500   39.9020 C   0  0  0  0  0  0  0  0  0  0  0  0
   32.3320   24.9610   39.4730 C   0  0  0  0  0  0  0  0  0  0  0  0
   31.7950   25.9390   40.2020 N   0  0  0  0  0  0  0  0  0  0  0  0
   31.1840   25.6820   40.9770 H   0  0  0  0  0  0  0  0  0  0  0  0
   33.0890   25.1870   38.5340 O   0  0  0  0  0  0  0  0  0  0  0  0
   32.0340   27.3520   39.9520 C   0  0  1  0  0  0  0  0  0  0  0  0
   30.7270   28.0930   39.7280 C   0  0  0  0  0  0  0  0  0  0  0  0
   29.8100   27.5300   38.2700 S   0  0  0  0  0  0  0  0  0  0  0  0
   32.8300   28.0560   41.0530 C   0  0  0  0  0  0  0  0  0  0  0  0
   33.7780   27.4740   41.5740 O   0  0  0  0  0  0  0  0  0  0  0  0
   33.1960   22.6630   40.1200 C   0  0  0  0  0  0  0  0  0  0  0  0
   33.2790   22.0770   41.5330 C   0  0  1  0  0  0  0  0  0  0  0  0
   34.5580   22.5780   42.2100 C   0  0  0  0  0  0  0  0  0  0  0  0
   35.0500   23.6320   41.7780 O   0  0  0  0  0  0  0  0  0  0  0  0
   35.0340   21.8860   43.1180 O   0  0  0  0  0  0  0  0  0  0  0  0
   32.1000   22.4910   42.3430 N   0  0  0  0  0  4  0  0  0  0  0  0
   32.3730   23.0560   43.1470 H   0  0  0  0  0  0  0  0  0  0  0  0
   31.5310   23.1840   41.8560 H   0  0  0  0  0  0  0  0  0  0  0  0
   31.5510   21.6770   42.6200 H   0  0  0  0  0  0  0  0  0  0  0  0
  1  2  1  0  0  0  0
  1 11  1  0  0  0  0
  2  5  2  0  0  0  0
  2  3  1  0  0  0  0
  3  6  1  0  0  0  0
  3  4  1  0  0  0  0
  6  7  1  1  0  0  0
  6  9  1  0  0  0  0
  7  8  1  0  0  0  0
  9 10  2  0  0  0  0
 12 11  1  6  0  0  0
 12 13  1  0  0  0  0
 12 16  1  0  0  0  0
 13 14  2  0  0  0  0
 13 15  1  0  0  0  0
 16 18  1  0  0  0  0
 16 19  1  0  0  0  0
 16 17  1  0  0  0  0
M  END
>  <MODEL>
1

>  <REMARK>
 VINA RESULT:    -5.231      0.000      0.000
 INTER + INTRA:          -7.994
 INTER:                  -7.525
 INTRA:                  -0.470
 UNBOUND:                -0.470
  8 active torsions:
  status: ('A' for Active; 'I' for Inactive)
    1  A    between atoms: N_1  and  C_5 
    2  A    between atoms: C_5  and  C_9 
    3  A    between atoms: C_5  and  C_6 
    4  A    between atoms: C_9  and  C_10 
    5  A    between atoms: C_10  and  C_11 
       I    between atoms: C_11  and  N_13 
    6  A    between atoms: N_13  and  C_15 
    7  A    between atoms: C_15  and  C_18 
    8  A    between atoms: C_15  and  C_16 

>  <COMPND>
    /home/daniil/Downloads/ml_docking_review/databases/Vina/outputs/8D19_GSH/8D19_GSH.pdbqt 

>  <AUTHOR>
    GENERATED BY OPEN BABEL 3.2.1

>  <MASTER>
        0    0    0    0    0    0    0    0   19    0   19    0

$$$$
