../../databases/Vina/outputs/7ZF0_DHR/7ZF0_DHR1.pdb
 OpenBabel08242616453D

 13 13  0  0  1  0  0  0  0  0999 V2000
   32.1430   57.5720   51.3130 N   0  0  0  0  0  0  0  0  0  0  0  0
   33.0040   57.4450   50.5780 C   0  0  0  0  0  0  0  0  0  0  0  0
   34.1410   57.2430   49.5680 C   0  0  2  0  0  0  0  0  0  0  0  0
   33.7860   58.0400   48.3190 C   0  0  0  0  0  0  0  0  0  0  0  0
   32.4810   58.4140   48.0460 C   0  0  0  0  0  0  0  0  0  0  0  0
   32.1670   59.1270   46.9150 C   0  0  0  0  0  0  0  0  0  0  0  0
   33.1890   59.4790   46.0390 C   0  0  0  0  0  0  0  0  0  0  0  0
   34.4930   59.1090   46.3390 C   0  0  0  0  0  0  0  0  0  0  0  0
   34.7970   58.3950   47.4590 C   0  0  0  0  0  0  0  0  0  0  0  0
   32.9060   60.2000   44.8990 O   0  0  0  0  0  0  0  0  0  0  0  0
   32.5610   61.0840   44.9560 H   0  0  0  0  0  0  0  0  0  0  0  0
   34.2890   55.8590   49.3270 O   0  0  0  0  0  0  0  0  0  0  0  0
   33.8200   55.5580   48.5570 H   0  0  0  0  0  0  0  0  0  0  0  0
  1  2  3  0  0  0  0
  3  2  1  1  0  0  0
  3  4  1  0  0  0  0
  3 12  1  0  0  0  0
  4  9  2  0  0  0  0
  4  5  1  0  0  0  0
  5  6  2  0  0  0  0
  6  7  1  0  0  0  0
  7 10  1  0  0  0  0
  7  8  2  0  0  0  0
  8  9  1  0  0  0  0
 10 11  1  0  0  0  0
 12 13  1  0  0  0  0
M  END
>  <MODEL>
1

>  <REMARK>
 VINA RESULT:    -6.756      0.000      0.000
 INTER + INTRA:          -7.556
 INTER:                  -7.546
 INTRA:                  -0.010
 UNBOUND:                -0.010
  3 active torsions:
  status: ('A' for Active; 'I' for Inactive)
    1  A    between atoms: C_3  and  C_11 
    2  A    between atoms: C_8  and  O_9 
    3  A    between atoms: C_11  and  O_12 

>  <COMPND>
    /home/daniil/Downloads/ml_docking_review/databases/Vina/outputs/7ZF0_DHR/7ZF0_DHR.pdbqt 

>  <AUTHOR>
    GENERATED BY OPEN BABEL 3.2.1

>  <MASTER>
        0    0    0    0    0    0    0    0   13    0   13    0

$$$$
