../../databases/Vina/outputs/7ED2_A3P/7ED2_A3P1.pdb
 OpenBabel08242616453D

 33 35  0  0  1  0  0  0  0  0999 V2000
  -22.2090  -20.8110   11.4880 C   0  0  1  0  0  0  0  0  0  0  0  0
  -22.3760  -20.7920   12.9170 O   0  0  0  0  0  0  0  0  0  0  0  0
  -22.1990  -19.3330   11.1220 C   0  0  2  0  0  0  0  0  0  0  0  0
  -23.2870  -18.7950   12.0330 C   0  0  2  0  0  0  0  0  0  0  0  0
  -23.2310  -19.7330   13.2440 C   0  0  2  0  0  0  0  0  0  0  0  0
  -22.6880  -19.0730   14.4070 N   0  0  2  0  0  0  0  0  0  0  0  0
  -23.3640  -18.7540   15.5530 C   0  0  2  0  0  0  0  0  0  0  0  0
  -24.6410  -19.0330   15.8310 N   0  0  0  0  0  0  0  0  0  0  0  0
  -22.4750  -18.0400   16.3380 C   0  0  0  0  0  0  0  0  0  0  0  0
  -24.9690  -18.5520   17.0310 C   0  0  0  0  0  0  0  0  0  0  0  0
  -25.2740  -19.5430   15.2150 H   0  0  0  0  0  0  0  0  0  0  0  0
  -24.2360  -17.8330   17.8960 N   0  0  0  0  0  0  0  0  0  0  0  0
  -22.9450  -17.5760   17.5780 C   0  0  0  0  0  0  0  0  0  0  0  0
  -24.6390  -17.4900   18.7680 H   0  0  0  0  0  0  0  0  0  0  0  0
  -21.2360  -17.9080   15.7110 N   0  0  0  0  0  0  0  0  0  0  0  0
  -21.3790  -18.5490   14.5640 C   0  0  0  0  0  0  0  0  0  0  0  0
  -20.4070  -17.4260   16.0590 H   0  0  0  0  0  0  0  0  0  0  0  0
  -22.2050  -16.8430   18.4050 N   0  0  0  0  0  0  0  0  0  0  0  0
  -22.5680  -15.9520   18.7420 H   0  0  0  0  0  0  0  0  0  0  0  0
  -21.2570  -17.1020   18.6800 H   0  0  0  0  0  0  0  0  0  0  0  0
  -24.5550  -18.7960   11.4290 O   0  0  0  0  0  0  0  0  0  0  0  0
  -24.5220  -18.5850   10.5040 H   0  0  0  0  0  0  0  0  0  0  0  0
  -20.9540  -21.5380   11.1050 C   0  0  0  0  0  0  0  0  0  0  0  0
  -21.2690  -22.9450   10.8830 O   0  0  0  0  0  0  0  0  0  0  0  0
  -20.2050  -24.0030   11.4400 P   0  0  0  0  0  0  0  0  0  0  0  0
  -20.6440  -25.4130   10.9230 O   0  0  0  0  0  0  0  0  0  0  0  0
  -18.8590  -23.5980   10.9460 O   0  0  0  0  0  0  0  0  0  0  0  0
  -20.3510  -23.8880   12.9160 O   0  0  0  0  0  0  0  0  0  0  0  0
  -22.3880  -19.3870    9.7420 O   0  0  0  0  0  0  0  0  0  0  0  0
  -21.7310  -18.2200    8.8010 P   0  0  0  0  0  0  0  0  0  0  0  0
  -20.2280  -18.2110    9.1730 O   0  0  0  0  0  0  0  0  0  0  0  0
  -22.4800  -16.9220    9.1920 O   0  0  0  0  0  0  0  0  0  0  0  0
  -22.0280  -18.6100    7.4040 O   0  0  0  0  0  0  0  0  0  0  0  0
  1 23  1  1  0  0  0
  1  3  1  0  0  0  0
  1  2  1  0  0  0  0
  3 29  1  6  0  0  0
  3  4  1  0  0  0  0
  4 21  1  6  0  0  0
  4  5  1  0  0  0  0
  5  2  1  6  0  0  0
  5  6  1  0  0  0  0
  6 16  1  6  0  0  0
  6  7  1  0  0  0  0
  7  8  1  0  0  0  0
  7  9  1  6  0  0  0
  8 11  1  0  0  0  0
  8 10  1  0  0  0  0
  9 15  1  0  0  0  0
  9 13  2  0  0  0  0
 10 12  1  0  0  0  0
 12 13  1  0  0  0  0
 12 14  1  0  0  0  0
 13 18  1  0  0  0  0
 15 16  1  0  0  0  0
 15 17  1  0  0  0  0
 18 20  1  0  0  0  0
 18 19  1  0  0  0  0
 21 22  1  0  0  0  0
 23 24  1  0  0  0  0
 24 25  1  0  0  0  0
 25 26  2  0  0  0  0
 25 27  1  0  0  0  0
 25 28  1  0  0  0  0
 29 30  1  0  0  0  0
 30 33  2  0  0  0  0
 30 31  1  0  0  0  0
 30 32  1  0  0  0  0
M  END
>  <MODEL>
1

>  <REMARK>
 VINA RESULT:    -9.792      0.000      0.000
 INTER + INTRA:         -14.782
 INTER:                 -13.798
 INTRA:                  -0.984
 UNBOUND:                -0.984
  8 active torsions:
  status: ('A' for Active; 'I' for Inactive)
    1  A    between atoms: P_1  and  O_14 
    2  A    between atoms: P_5  and  O_9 
    3  A    between atoms: O_9  and  C_10 
    4  A    between atoms: C_10  and  C_11 
    5  A    between atoms: C_13  and  O_14 
    6  A    between atoms: C_15  and  O_16 
    7  A    between atoms: C_18  and  N_19 
    8  A    between atoms: C_24  and  N_25 

>  <COMPND>
    /home/daniil/Downloads/ml_docking_review/databases/Vina/outputs/7ED2_A3P/7ED2_A3P.pdbqt 

>  <AUTHOR>
    GENERATED BY OPEN BABEL 3.2.1

>  <MASTER>
        0    0    0    0    0    0    0    0   33    0   33    0

$$$$
