../../databases/Vina/outputs/7EBG_J0L/7EBG_J0L1.pdb
 OpenBabel08242616453D

 16 17  0  0  0  0  0  0  0  0999 V2000
  -14.8430   10.1350   21.3990 C   0  0  0  0  0  0  0  0  0  0  0  0
  -14.9820    8.7780   21.7510 C   0  0  0  0  0  0  0  0  0  0  0  0
  -14.8750    8.3670   23.0770 C   0  0  0  0  0  0  0  0  0  0  0  0
  -14.5890   11.1280   22.3500 C   0  0  0  0  0  0  0  0  0  0  0  0
  -14.4870   10.6740   23.6650 C   0  0  0  0  0  0  0  0  0  0  0  0
  -14.6250    9.3330   24.0310 C   0  0  0  0  0  0  0  0  0  0  0  0
  -14.4560    9.1910   25.5260 C   0  0  0  0  0  0  0  0  0  0  0  0
  -14.2060   10.6540   25.9510 C   0  0  0  0  0  0  0  0  0  0  0  0
  -15.7170    8.6530   26.2020 C   0  0  0  0  0  0  0  0  0  0  0  0
  -13.2300    8.3510   25.8750 C   0  0  0  0  0  0  0  0  0  0  0  0
  -14.2440   11.4320   24.8070 N   0  0  0  0  0  0  0  0  0  0  0  0
  -14.1080   12.4430   24.8010 H   0  0  0  0  0  0  0  0  0  0  0  0
  -14.0070   11.0750   27.0770 O   0  0  0  0  0  0  0  0  0  0  0  0
  -14.4430   12.4610   22.0390 N   0  0  0  0  0  0  0  0  0  0  0  0
  -13.4860   12.9920   21.1010 C   0  0  0  0  0  0  0  0  0  0  0  0
  -15.0610   13.1240   22.5070 H   0  0  0  0  0  0  0  0  0  0  0  0
  1  2  2  0  0  0  0
  1  4  1  0  0  0  0
  2  3  1  0  0  0  0
  3  6  2  0  0  0  0
  4 14  1  0  0  0  0
  4  5  2  0  0  0  0
  5  6  1  0  0  0  0
  5 11  1  0  0  0  0
  6  7  1  0  0  0  0
  7 10  1  0  0  0  0
  7  8  1  0  0  0  0
  7  9  1  0  0  0  0
  8 11  1  0  0  0  0
  8 13  2  0  0  0  0
 11 12  1  0  0  0  0
 14 15  1  0  0  0  0
 14 16  1  0  0  0  0
M  END
>  <MODEL>
1

>  <REMARK>
 VINA RESULT:    -8.024      0.000      0.000
 INTER + INTRA:          -8.547
 INTER:                  -8.493
 INTRA:                  -0.054
 UNBOUND:                -0.054
  1 active torsions:
  status: ('A' for Active; 'I' for Inactive)
    1  A    between atoms: C_4  and  N_12 

>  <COMPND>
    /home/daniil/Downloads/ml_docking_review/databases/Vina/outputs/7EBG_J0L/7EBG_J0L.pdbqt 

>  <AUTHOR>
    GENERATED BY OPEN BABEL 3.2.1

>  <MASTER>
        0    0    0    0    0    0    0    0   16    0   16    0

$$$$
