../../databases/Vina/outputs/7MWU_ZPM/7MWU_ZPM1.pdb
 OpenBabel08242616453D

  7  7  0  0  0  0  0  0  0  0999 V2000
   10.8160   50.2190   50.6010 C   0  0  0  0  0  0  0  0  0  0  0  0
   10.3460   49.8080   49.2030 C   0  0  0  0  0  0  0  0  0  0  0  0
   11.2430   48.5740   49.2840 C   0  0  0  0  0  0  0  0  0  0  0  0
   11.8910   49.1270   50.5530 C   0  0  0  0  0  0  0  0  0  0  0  0
   12.2140   48.4940   48.1060 C   0  0  0  0  0  0  0  0  0  0  0  0
   13.0180   47.5300   48.0590 O   0  0  0  0  0  0  0  0  0  0  0  0
   12.2050   49.3830   47.2120 O   0  0  0  0  0  0  0  0  0  0  0  0
  1  2  1  0  0  0  0
  1  4  1  0  0  0  0
  2  3  1  0  0  0  0
  3  5  1  0  0  0  0
  3  4  1  0  0  0  0
  5  7  2  0  0  0  0
  5  6  1  0  0  0  0
M  END
>  <MODEL>
1

>  <REMARK>
 VINA RESULT:    -6.237      0.000      0.000
 INTER + INTRA:          -5.928
 INTER:                  -6.601
 INTRA:                   0.674
 UNBOUND:                 0.674
  1 active torsions:
  status: ('A' for Active; 'I' for Inactive)
    1  A    between atoms: C_3  and  C_5 

>  <COMPND>
    /home/daniil/Downloads/ml_docking_review/databases/Vina/outputs/7MWU_ZPM/7MWU_ZPM.pdbqt 

>  <AUTHOR>
    GENERATED BY OPEN BABEL 3.2.1

>  <MASTER>
        0    0    0    0    0    0    0    0    7    0    7    0

$$$$
