../../databases/Vina/outputs/7FHA_ADX/7FHA_ADX1.pdb
 OpenBabel08242616453D

 34 36  0  0  1  0  0  0  0  0999 V2000
   -4.9690   -2.4490   -1.7330 C   0  0  1  0  0  0  0  0  0  0  0  0
   -5.0500   -1.2110   -1.0950 O   0  0  0  0  0  0  0  0  0  0  0  0
   -6.3120   -2.5940   -2.4760 C   0  0  2  0  0  0  0  0  0  0  0  0
   -6.6720   -1.1750   -2.8190 C   0  0  2  0  0  0  0  0  0  0  0  0
   -6.1750   -0.5220   -1.5560 C   0  0  2  0  0  0  0  0  0  0  0  0
   -5.7800    0.8650   -1.4950 N   0  0  0  0  0  0  0  0  0  0  0  0
   -4.5930    1.3210   -1.3850 C   0  0  0  0  0  0  0  0  0  0  0  0
   -4.5920    2.6050   -1.2610 N   0  0  0  0  0  0  0  0  0  0  0  0
   -5.8330    3.0140   -1.2500 C   0  0  0  0  0  0  0  0  0  0  0  0
   -3.7670    3.1970   -1.1840 H   0  0  0  0  0  0  0  0  0  0  0  0
   -6.5500    4.2720   -1.1320 C   0  0  2  0  0  0  0  0  0  0  0  0
   -6.6390    1.8260   -1.4010 C   0  0  0  0  0  0  0  0  0  0  0  0
   -7.8830    4.2270   -1.1970 N   0  0  0  0  0  0  0  0  0  0  0  0
   -8.5560    3.1120   -1.3410 C   0  0  0  0  0  0  0  0  0  0  0  0
   -8.4010    5.1030   -1.1320 H   0  0  0  0  0  0  0  0  0  0  0  0
   -7.9700    1.9370   -1.4560 N   0  0  0  0  0  0  0  0  0  0  0  0
   -8.5400    1.1010   -1.5900 H   0  0  0  0  0  0  0  0  0  0  0  0
   -5.8950    5.4260   -0.9710 N   0  0  0  0  0  0  0  0  0  0  0  0
   -4.9780    5.5820   -1.3870 H   0  0  0  0  0  0  0  0  0  0  0  0
   -6.2960    6.1850   -0.4200 H   0  0  0  0  0  0  0  0  0  0  0  0
   -8.0170   -0.9350   -3.0200 O   0  0  0  0  0  0  0  0  0  0  0  0
   -8.6000   -1.6460   -2.7770 H   0  0  0  0  0  0  0  0  0  0  0  0
   -3.7800   -2.5420   -2.6970 C   0  0  0  0  0  0  0  0  0  0  0  0
   -3.4750   -1.3630   -3.3810 O   0  0  0  0  0  0  0  0  0  0  0  0
   -2.0770   -0.9460   -3.8850 P   0  0  1  0  0  0  0  0  0  0  0  0
   -2.2400    0.0290   -4.8130 O   0  0  0  0  0  0  0  0  0  0  0  0
   -1.2300   -0.7380   -2.8170 O   0  0  0  0  0  0  0  0  0  0  0  0
   -1.5300   -2.1760   -4.6480 O   0  0  0  0  0  0  0  0  0  0  0  0
   -0.2070   -2.5500   -5.1740 S   0  0  0  0  0  0  0  0  0  0  0  0
    0.4120   -3.1510   -4.2330 O   0  0  0  0  0  0  0  0  0  0  0  0
   -0.4510   -3.3980   -6.1040 O   0  0  0  0  0  0  0  0  0  0  0  0
    0.4310   -1.5320   -5.6140 O   0  0  0  0  0  0  0  0  0  0  0  0
   -7.2270   -3.2000   -1.6450 O   0  0  0  0  0  0  0  0  0  0  0  0
   -7.9820   -2.6330   -1.5450 H   0  0  0  0  0  0  0  0  0  0  0  0
  1 23  1  6  0  0  0
  1  3  1  0  0  0  0
  1  2  1  0  0  0  0
  2  5  1  0  0  0  0
  3  4  1  0  0  0  0
  3 33  1  1  0  0  0
  4 21  1  1  0  0  0
  4  5  1  0  0  0  0
  5  6  1  6  0  0  0
  6 12  1  0  0  0  0
  6  7  1  0  0  0  0
  7  8  1  0  0  0  0
  8  9  1  0  0  0  0
  8 10  1  0  0  0  0
  9 12  2  0  0  0  0
  9 11  1  0  0  0  0
 11 13  1  0  0  0  0
 11 18  1  6  0  0  0
 12 16  1  0  0  0  0
 13 14  1  0  0  0  0
 13 15  1  0  0  0  0
 14 16  1  0  0  0  0
 16 17  1  0  0  0  0
 18 19  1  0  0  0  0
 18 20  1  0  0  0  0
 21 22  1  0  0  0  0
 23 24  1  0  0  0  0
 24 25  1  0  0  0  0
 25 26  2  6  0  0  0
 25 28  1  0  0  0  0
 25 27  1  0  0  0  0
 28 29  1  0  0  0  0
 29 31  1  0  0  0  0
 29 32  1  0  0  0  0
 29 30  1  0  0  0  0
 33 34  1  0  0  0  0
M  END
>  <MODEL>
1

>  <REMARK>
 VINA RESULT:    -9.118      0.000      0.000
 INTER + INTRA:         -14.153
 INTER:                 -13.115
 INTRA:                  -1.037
 UNBOUND:                -1.037
  9 active torsions:
  status: ('A' for Active; 'I' for Inactive)
    1  A    between atoms: S_1  and  O_8 
    2  A    between atoms: P_5  and  O_8 
    3  A    between atoms: P_5  and  O_9 
    4  A    between atoms: O_9  and  C_10 
    5  A    between atoms: C_10  and  C_11 
    6  A    between atoms: C_13  and  O_14 
    7  A    between atoms: C_16  and  O_17 
    8  A    between atoms: C_19  and  N_20 
    9  A    between atoms: C_25  and  N_26 

>  <COMPND>
    /home/daniil/Downloads/ml_docking_review/databases/Vina/outputs/7FHA_ADX/7FHA_ADX.pdbqt 

>  <AUTHOR>
    GENERATED BY OPEN BABEL 3.2.1

>  <MASTER>
        0    0    0    0    0    0    0    0   34    0   34    0

$$$$
