../../databases/Vina/outputs/7BMI_U4B/7BMI_U4B1.pdb
 OpenBabel08242616453D

 14 14  0  0  0  0  0  0  0  0999 V2000
   58.8950   17.1580   13.9950 C   0  0  0  0  0  0  0  0  0  0  0  0
   59.8290   16.4980   14.7550 C   0  0  0  0  0  0  0  0  0  0  0  0
   59.6010   16.3280   16.1120 C   0  0  0  0  0  0  0  0  0  0  0  0
   57.5900   17.4350   15.9830 C   0  0  0  0  0  0  0  0  0  0  0  0
   57.7400   17.6300   14.5860 C   0  0  0  0  0  0  0  0  0  0  0  0
   56.8430   18.2500   13.8430 F   0  0  0  0  0  0  0  0  0  0  0  0
   58.5320   16.7580   16.6930 N   0  0  0  0  0  0  0  0  0  0  0  0
   58.3930   16.5880   17.6890 H   0  0  0  0  0  0  0  0  0  0  0  0
   59.0880   17.3130   12.5060 C   0  0  0  0  0  0  0  0  0  0  0  0
   58.9130   16.2650   11.8690 O   0  0  0  0  0  0  0  0  0  0  0  0
   59.3020   18.4250   11.9160 O   0  0  0  0  0  0  0  0  0  0  0  0
   56.3440   17.9270   16.6780 C   0  0  0  0  0  0  0  0  0  0  0  0
   55.5270   18.7640   16.1210 O   0  0  0  0  0  0  0  0  0  0  0  0
   56.0830   17.5850   17.8410 O   0  0  0  0  0  0  0  0  0  0  0  0
  1  9  1  0  0  0  0
  1  5  1  0  0  0  0
  1  2  2  0  0  0  0
  2  3  1  0  0  0  0
  3  7  1  0  0  0  0
  4  5  2  0  0  0  0
  4 12  1  0  0  0  0
  4  7  1  0  0  0  0
  5  6  1  0  0  0  0
  7  8  1  0  0  0  0
  9 10  2  0  0  0  0
  9 11  1  0  0  0  0
 12 13  2  0  0  0  0
 12 14  1  0  0  0  0
M  END
>  <MODEL>
1

>  <REMARK>
 VINA RESULT:    -7.395      0.000      0.000
 INTER + INTRA:          -8.190
 INTER:                  -8.259
 INTRA:                   0.069
 UNBOUND:                 0.069
  2 active torsions:
  status: ('A' for Active; 'I' for Inactive)
    1  A    between atoms: C_1  and  C_2 
    2  A    between atoms: CA_5  and  C_6 

>  <COMPND>
    /home/daniil/Downloads/ml_docking_review/databases/Vina/outputs/7BMI_U4B/7BMI_U4B.pdbqt 

>  <AUTHOR>
    GENERATED BY OPEN BABEL 3.2.1

>  <MASTER>
        0    0    0    0    0    0    0    0   14    0   14    0

$$$$
