../../databases/Vina/outputs/8DKO_TFB/8DKO_TFB1.pdb
 OpenBabel08242616453D

  8  8  0  0  1  0  0  0  0  0999 V2000
   14.0880   15.7420   47.9380 O   0  0  0  0  0  0  0  0  0  0  0  0
   14.6850   16.4300   46.8500 C   0  0  1  0  0  0  0  0  0  0  0  0
   15.9600   17.0900   47.2720 C   0  0  0  0  0  0  0  0  0  0  0  0
   16.3160   16.4370   48.5760 C   0  0  0  0  0  0  0  0  0  0  0  0
   15.0600   15.6720   49.0010 C   0  0  0  0  0  0  0  0  0  0  0  0
   14.9880   15.3570   45.8020 C   0  0  0  0  0  0  0  0  0  0  0  0
   14.1800   14.3990   45.6400 O   0  0  0  0  0  0  0  0  0  0  0  0
   16.0470   15.4230   45.1290 O   0  0  0  0  0  0  0  0  0  0  0  0
  1  2  1  0  0  0  0
  1  5  1  0  0  0  0
  2  6  1  6  0  0  0
  2  3  1  0  0  0  0
  3  4  1  0  0  0  0
  4  5  1  0  0  0  0
  6  8  2  0  0  0  0
  6  7  1  0  0  0  0
M  END
>  <MODEL>
1

>  <REMARK>
 VINA RESULT:    -5.766      0.000      0.000
 INTER + INTRA:          -6.205
 INTER:                  -6.103
 INTRA:                  -0.102
 UNBOUND:                -0.102
  1 active torsions:
  status: ('A' for Active; 'I' for Inactive)
    1  A    between atoms: C_2  and  C_3 

>  <COMPND>
    /home/daniil/Downloads/ml_docking_review/databases/Vina/outputs/8DKO_TFB/8DKO_TFB.pdbqt 

>  <AUTHOR>
    GENERATED BY OPEN BABEL 3.2.1

>  <MASTER>
        0    0    0    0    0    0    0    0    8    0    8    0

$$$$
