../../databases/Vina/outputs/7AKL_RK5/7AKL_RK51.pdb
 OpenBabel08242616453D

 24 26  0  0  1  0  0  0  0  0999 V2000
   42.2900    5.9940   12.2800 C   0  0  0  0  0  0  0  0  0  0  0  0
   41.8560    7.1980   11.7140 C   0  0  0  0  0  0  0  0  0  0  0  0
   41.2910    7.2180   10.4270 C   0  0  2  0  0  0  0  0  0  0  0  0
   41.2640    6.1130    9.6640 N   0  0  0  0  0  0  0  0  0  0  0  0
   40.9000    6.1490    8.7130 H   0  0  0  0  0  0  0  0  0  0  0  0
   41.7260    4.9550   10.1750 C   0  0  0  0  0  0  0  0  0  0  0  0
   42.2340    4.8520   11.4830 C   0  0  0  0  0  0  0  0  0  0  0  0
   42.9190    5.9560   13.6360 C   0  0  0  0  0  0  0  0  0  0  0  0
   42.9390    7.1110   14.4640 C   0  0  0  0  0  0  0  0  0  0  0  0
   43.4630    7.1110   15.7450 C   0  0  0  0  0  0  0  0  0  0  0  0
   43.9720    5.9120   16.1840 C   0  0  0  0  0  0  0  0  0  0  0  0
   44.5400    5.6690   17.4220 O   0  0  0  0  0  0  0  0  0  0  0  0
   43.9840    4.7560   15.4160 C   0  0  0  0  0  0  0  0  0  0  0  0
   44.9150    4.3350   17.4010 C   0  0  0  0  0  0  0  0  0  0  0  0
   44.6380    3.7520   16.2110 C   0  0  0  0  0  0  0  0  0  0  0  0
   45.5400    3.7610   18.6120 C   0  0  0  0  0  0  0  0  0  0  0  0
   44.8170    2.3270   15.7860 C   0  0  0  0  0  0  0  0  0  0  0  0
   43.4530    4.7760   14.1310 C   0  0  0  0  0  0  0  0  0  0  0  0
   41.6770    3.8810    9.3660 N   0  0  0  0  0  0  0  0  0  0  0  0
   42.0630    3.0130    9.7380 H   0  0  0  0  0  0  0  0  0  0  0  0
   41.2740    3.9470    8.4320 H   0  0  0  0  0  0  0  0  0  0  0  0
   40.8420    8.3720    9.8670 N   0  0  0  0  0  0  0  0  0  0  0  0
   40.2620    8.3660    9.0280 H   0  0  0  0  0  0  0  0  0  0  0  0
   41.0450    9.2410   10.3610 H   0  0  0  0  0  0  0  0  0  0  0  0
  1  7  1  0  0  0  0
  1  2  2  0  0  0  0
  1  8  1  0  0  0  0
  2  3  1  0  0  0  0
  3  4  1  0  0  0  0
  3 22  1  6  0  0  0
  4  5  1  0  0  0  0
  4  6  1  0  0  0  0
  6 19  1  0  0  0  0
  6  7  2  0  0  0  0
  8 18  2  0  0  0  0
  8  9  1  0  0  0  0
  9 10  2  0  0  0  0
 10 11  1  0  0  0  0
 11 13  2  0  0  0  0
 11 12  1  0  0  0  0
 12 14  1  0  0  0  0
 13 18  1  0  0  0  0
 13 15  1  0  0  0  0
 14 15  2  0  0  0  0
 14 16  1  0  0  0  0
 15 17  1  0  0  0  0
 19 21  1  0  0  0  0
 19 20  1  0  0  0  0
 22 23  1  0  0  0  0
 22 24  1  0  0  0  0
M  END
>  <MODEL>
1

>  <REMARK>
 VINA RESULT:    -9.355      0.000      0.000
 INTER + INTRA:         -10.778
 INTER:                 -10.448
 INTRA:                  -0.330
 UNBOUND:                -0.330
  3 active torsions:
  status: ('A' for Active; 'I' for Inactive)
    1  A    between atoms: C_7  and  C_12 
    2  A    between atoms: C_14  and  N_15 
    3  A    between atoms: C_20  and  N_21 

>  <COMPND>
    /home/daniil/Downloads/ml_docking_review/databases/Vina/outputs/7AKL_RK5/7AKL_RK5.pdbqt 

>  <AUTHOR>
    GENERATED BY OPEN BABEL 3.2.1

>  <MASTER>
        0    0    0    0    0    0    0    0   24    0   24    0

$$$$
