../../databases/Vina/outputs/7LMO_NYO/7LMO_NYO1.pdb
 OpenBabel08242616453D

 40 44  0  0  1  0  0  0  0  0999 V2000
   -7.2980  -16.1570   37.4360 N   0  0  0  0  0  0  0  0  0  0  0  0
   -6.3280  -15.8710   38.4140 C   0  0  0  0  0  0  0  0  0  0  0  0
   -5.1890  -15.4750   38.2130 O   0  0  0  0  0  0  0  0  0  0  0  0
   -6.9010  -16.0500   39.6020 N   0  0  0  0  0  0  0  0  0  0  0  0
   -6.4120  -15.9060   40.4860 H   0  0  0  0  0  0  0  0  0  0  0  0
   -8.2910  -16.4720   39.5180 C   0  0  2  0  0  0  0  0  0  0  0  0
   -8.5090  -16.4680   38.0240 C   0  0  0  0  0  0  0  0  0  0  0  0
   -9.5580  -16.7190   37.4550 O   0  0  0  0  0  0  0  0  0  0  0  0
   -9.2550  -15.5260   40.2610 C   0  0  0  0  0  0  0  0  0  0  0  0
   -9.3410  -16.0880   41.6660 C   0  0  0  0  0  0  0  0  0  0  0  0
   -8.9360  -17.4850   41.5060 N   0  0  0  0  0  0  0  0  0  0  0  0
   -8.5400  -17.8410   40.1520 C   0  0  0  0  0  0  0  0  0  0  0  0
   -8.8350  -18.3980   42.4720 C   0  0  0  0  0  0  0  0  0  0  0  0
   -8.4840  -19.5590   42.2150 O   0  0  0  0  0  0  0  0  0  0  0  0
   -7.0710  -16.0350   35.9970 C   0  0  0  0  0  0  0  0  0  0  0  0
   -6.9320  -17.3880   35.3090 C   0  0  0  0  0  0  0  0  0  0  0  0
   -5.6520  -18.1380   35.6130 C   0  0  0  0  0  0  0  0  0  0  0  0
   -5.7910  -19.2400   36.5610 C   0  0  0  0  0  0  0  0  0  0  0  0
   -6.7480  -19.4320   37.2810 O   0  0  0  0  0  0  0  0  0  0  0  0
   -4.7300  -20.1130   36.7070 O   0  0  0  0  0  0  0  0  0  0  0  0
   -3.5550  -19.9380   36.0350 C   0  0  0  0  0  0  0  0  0  0  0  0
   -2.5790  -20.8760   36.2670 C   0  0  0  0  0  0  0  0  0  0  0  0
   -3.3730  -18.8740   35.1620 C   0  0  0  0  0  0  0  0  0  0  0  0
   -1.3540  -20.7880   35.6050 C   0  0  0  0  0  0  0  0  0  0  0  0
   -1.1590  -19.7330   34.7250 C   0  0  0  0  0  0  0  0  0  0  0  0
   -2.1440  -18.7880   34.5190 C   0  0  0  0  0  0  0  0  0  0  0  0
   -4.4780  -17.9350   34.9440 C   0  0  0  0  0  0  0  0  0  0  0  0
   -4.2670  -16.7900   34.0020 C   0  0  0  0  0  0  0  0  0  0  0  0
   -0.3250  -21.6990   35.8810 N   0  0  0  0  0  0  0  0  0  0  0  0
   -0.3950  -22.6130   36.9940 C   0  0  0  0  0  0  0  0  0  0  0  0
   -0.4160  -24.0220   36.5590 C   0  0  0  0  0  0  0  0  0  0  0  0
    0.8170  -21.8660   34.9600 C   0  0  0  0  0  0  0  0  0  0  0  0
    2.0080  -21.5110   35.7200 C   0  0  0  0  0  0  0  0  0  0  0  0
   -9.0880  -17.9770   43.8840 C   0  0  0  0  0  0  0  0  0  0  0  0
   -8.3620  -17.7370   45.0230 C   0  0  0  0  0  0  0  0  0  0  0  0
   -9.1760  -17.3410   46.0540 N   0  0  0  0  0  0  0  0  0  0  0  0
  -10.3930  -17.3540   45.5430 C   0  0  0  0  0  0  0  0  0  0  0  0
   -8.9020  -17.0920   47.0040 H   0  0  0  0  0  0  0  0  0  0  0  0
  -10.3920  -17.7310   44.2440 N   0  0  0  0  0  0  0  0  0  0  0  0
  -11.2110  -17.8180   43.6420 H   0  0  0  0  0  0  0  0  0  0  0  0
  1 15  1  0  0  0  0
  1  7  1  0  0  0  0
  1  2  1  0  0  0  0
  2  3  2  0  0  0  0
  2  4  1  0  0  0  0
  4  6  1  0  0  0  0
  4  5  1  0  0  0  0
  6  7  1  0  0  0  0
  6 12  1  1  0  0  0
  6  9  1  0  0  0  0
  7  8  2  0  0  0  0
  9 10  1  0  0  0  0
 10 11  1  0  0  0  0
 11 12  1  0  0  0  0
 11 13  1  0  0  0  0
 13 14  2  0  0  0  0
 13 34  1  0  0  0  0
 15 16  1  0  0  0  0
 16 17  1  0  0  0  0
 17 27  2  0  0  0  0
 17 18  1  0  0  0  0
 18 20  1  0  0  0  0
 18 19  2  0  0  0  0
 20 21  1  0  0  0  0
 21 23  2  0  0  0  0
 21 22  1  0  0  0  0
 22 24  2  0  0  0  0
 23 26  1  0  0  0  0
 23 27  1  0  0  0  0
 24 25  1  0  0  0  0
 24 29  1  0  0  0  0
 25 26  2  0  0  0  0
 27 28  1  0  0  0  0
 29 32  1  0  0  0  0
 29 30  1  0  0  0  0
 30 31  1  0  0  0  0
 32 33  1  0  0  0  0
 34 39  1  0  0  0  0
 34 35  2  0  0  0  0
 35 36  1  0  0  0  0
 36 37  1  0  0  0  0
 36 38  1  0  0  0  0
 37 39  1  0  0  0  0
 39 40  1  0  0  0  0
M  END
>  <MODEL>
1

>  <REMARK>
 VINA RESULT:   -12.125      0.000      0.000
 INTER + INTRA:         -18.285
 INTER:                 -17.087
 INTRA:                  -1.198
 UNBOUND:                -1.198
  7 active torsions:
  status: ('A' for Active; 'I' for Inactive)
    1  A    between atoms: C_1  and  N_13 
    2  A    between atoms: N_4  and  C_22 
    3  A    between atoms: C_7  and  N_13 
    4  A    between atoms: N_13  and  C_15 
    5  A    between atoms: C_17  and  C_21 
    6  A    between atoms: C_21  and  C_22 
       I    between atoms: N_32  and  C_34 
    7  A    between atoms: C_34  and  C_36 

>  <COMPND>
    /home/daniil/Downloads/ml_docking_review/databases/Vina/outputs/7LMO_NYO/7LMO_NYO.pdbqt 

>  <AUTHOR>
    GENERATED BY OPEN BABEL 3.2.1

>  <MASTER>
        0    0    0    0    0    0    0    0   40    0   40    0

$$$$
