../../databases/Vina/outputs/7A9H_TPP/7A9H_TPP1.pdb
 OpenBabel08242616453D

 30 31  0  0  1  0  0  0  0  0999 V2000
    1.2240   11.5670  -20.3310 N   0  0  0  0  0  0  0  0  0  0  0  0
    2.4950   11.8440  -20.0210 C   0  0  0  0  0  0  0  0  0  0  0  0
    2.8560   11.4960  -18.3850 S   0  0  0  0  0  0  0  0  0  0  0  0
    1.1860   11.1610  -18.0720 C   0  0  0  0  0  0  0  0  0  0  0  0
    0.4540   11.2030  -19.2230 C   0  0  0  0  0  0  0  0  0  0  0  0
   -1.0180   10.9710  -19.3490 C   0  0  0  0  0  0  0  0  0  0  0  0
    0.6830   11.7550  -21.7050 C   0  0  0  0  0  0  0  0  0  0  0  0
    0.4640   10.4600  -22.4970 C   0  0  0  0  0  0  0  0  0  0  0  0
   -0.7930   10.0180  -22.8560 C   0  0  0  0  0  0  0  0  0  0  0  0
   -1.0080    8.8950  -23.5650 N   0  0  0  0  0  0  0  0  0  0  0  0
    0.0680    8.2090  -23.9910 C   0  0  1  0  0  0  0  0  0  0  0  0
   -1.9540    8.5750  -23.7730 H   0  0  0  0  0  0  0  0  0  0  0  0
    1.3320    8.5530  -23.7260 N   0  0  0  0  0  0  0  0  0  0  0  0
   -0.1500    6.9450  -24.7620 C   0  0  0  0  0  0  0  0  0  0  0  0
    1.5330    9.6940  -23.0240 C   0  0  0  0  0  0  0  0  0  0  0  0
    2.1150    7.9790  -24.0400 H   0  0  0  0  0  0  0  0  0  0  0  0
    2.8120   10.0530  -22.8140 N   0  0  0  0  0  0  0  0  0  0  0  0
    2.9640   10.9120  -22.2850 H   0  0  0  0  0  0  0  0  0  0  0  0
    3.5820    9.5010  -23.1940 H   0  0  0  0  0  0  0  0  0  0  0  0
    0.6830   10.9220  -16.6680 C   0  0  0  0  0  0  0  0  0  0  0  0
    1.0940    9.6230  -15.9940 C   0  0  0  0  0  0  0  0  0  0  0  0
    2.4920    9.6870  -15.6450 O   0  0  0  0  0  0  0  0  0  0  0  0
    3.3230    8.4050  -15.1540 P   0  0  1  0  0  0  0  0  0  0  0  0
    2.7490    7.8850  -13.8750 O   0  0  0  0  0  0  0  0  0  0  0  0
    3.2800    7.5020  -16.3470 O   0  0  0  0  0  0  0  0  0  0  0  0
    4.8060    8.9760  -14.9430 O   0  0  0  0  0  0  0  0  0  0  0  0
    5.5510    9.6370  -13.6310 P   0  0  0  0  0  0  0  0  0  0  0  0
    7.0410    9.4860  -13.9300 O   0  0  0  0  0  0  0  0  0  0  0  0
    5.0790    8.7880  -12.4450 O   0  0  0  0  0  0  0  0  0  0  0  0
    5.0910   11.0450  -13.5530 O   0  0  0  0  0  0  0  0  0  0  0  0
  1  7  1  0  0  0  0
  1  2  1  0  0  0  0
  1  5  1  0  0  0  0
  2  3  1  0  0  0  0
  3  4  1  0  0  0  0
  4  5  2  0  0  0  0
  4 20  1  0  0  0  0
  5  6  1  0  0  0  0
  7  8  1  0  0  0  0
  8 15  2  0  0  0  0
  8  9  1  0  0  0  0
  9 10  1  0  0  0  0
 10 11  1  0  0  0  0
 10 12  1  0  0  0  0
 11 14  1  1  0  0  0
 11 13  1  0  0  0  0
 13 16  1  0  0  0  0
 13 15  1  0  0  0  0
 15 17  1  0  0  0  0
 17 19  1  0  0  0  0
 17 18  1  0  0  0  0
 20 21  1  0  0  0  0
 21 22  1  0  0  0  0
 22 23  1  0  0  0  0
 23 25  2  6  0  0  0
 23 26  1  0  0  0  0
 23 24  1  0  0  0  0
 26 27  1  0  0  0  0
 27 28  2  0  0  0  0
 27 30  1  0  0  0  0
 27 29  1  0  0  0  0
M  END
>  <MODEL>
1

>  <REMARK>
 VINA RESULT:    -8.982      0.000      0.000
 INTER + INTRA:         -13.385
 INTER:                 -13.182
 INTRA:                  -0.203
 UNBOUND:                -0.203
  8 active torsions:
  status: ('A' for Active; 'I' for Inactive)
    1  A    between atoms: C_11  and  C_13 
    2  A    between atoms: C_13  and  N_14 
    3  A    between atoms: C_17  and  C_20 
    4  A    between atoms: C_20  and  C_21 
    5  A    between atoms: C_21  and  O_22 
    6  A    between atoms: O_22  and  P_23 
    7  A    between atoms: P_23  and  O_26 
    8  A    between atoms: O_26  and  P_27 

>  <COMPND>
    /home/daniil/Downloads/ml_docking_review/databases/Vina/outputs/7A9H_TPP/7A9H_TPP.pdbqt 

>  <AUTHOR>
    GENERATED BY OPEN BABEL 3.2.1

>  <MASTER>
        0    0    0    0    0    0    0    0   30    0   30    0

$$$$
