../../databases/Vina/outputs/7XJN_NSD/7XJN_NSD1.pdb
 OpenBabel08242616453D

 17 16  0  0  0  0  0  0  0  0999 V2000
   -1.4480    6.7880   32.9820 N   0  0  0  0  0  4  0  0  0  0  0  0
   -1.2180    5.8290   33.2420 H   0  0  0  0  0  0  0  0  0  0  0  0
   -1.2020    6.7630   31.9930 H   0  0  0  0  0  0  0  0  0  0  0  0
   -0.5900    7.7360   33.7030 C   0  0  0  0  0  0  0  0  0  0  0  0
    0.5280    8.2260   32.8070 C   0  0  0  0  0  0  0  0  0  0  0  0
    1.6170    9.0000   33.5290 C   0  0  0  0  0  0  0  0  0  0  0  0
    1.8830   10.2740   32.8110 N   0  0  0  0  0  4  0  0  0  0  0  0
    1.7580   10.1810   31.8030 H   0  0  0  0  0  0  0  0  0  0  0  0
    1.1590   10.9710   32.9850 H   0  0  0  0  0  0  0  0  0  0  0  0
    2.8130   10.6160   33.0530 H   0  0  0  0  0  0  0  0  0  0  0  0
   -2.8810    7.0350   33.1480 C   0  0  0  0  0  0  0  0  0  0  0  0
   -3.7250    5.8850   32.6480 C   0  0  0  0  0  0  0  0  0  0  0  0
   -4.7720    6.3840   31.6650 C   0  0  0  0  0  0  0  0  0  0  0  0
   -6.0320    6.6930   32.3410 N   0  0  0  0  0  4  0  0  0  0  0  0
   -6.7190    5.9510   32.2070 H   0  0  0  0  0  0  0  0  0  0  0  0
   -5.9360    6.6370   33.3550 H   0  0  0  0  0  0  0  0  0  0  0  0
   -6.3970    7.6000   32.0480 H   0  0  0  0  0  0  0  0  0  0  0  0
  1  3  1  0  0  0  0
  1 11  1  0  0  0  0
  1  2  1  0  0  0  0
  1  4  1  0  0  0  0
  4  5  1  0  0  0  0
  5  6  1  0  0  0  0
  6  7  1  0  0  0  0
  7  8  1  0  0  0  0
  7  9  1  0  0  0  0
  7 10  1  0  0  0  0
 11 12  1  0  0  0  0
 12 13  1  0  0  0  0
 13 14  1  0  0  0  0
 14 17  1  0  0  0  0
 14 15  1  0  0  0  0
 14 16  1  0  0  0  0
M  END
>  <MODEL>
1

>  <REMARK>
 VINA RESULT:    -5.540      0.000      0.000
 INTER + INTRA:          -7.870
 INTER:                  -7.807
 INTRA:                  -0.063
 UNBOUND:                -0.063
  8 active torsions:
  status: ('A' for Active; 'I' for Inactive)
    1  A    between atoms: C_1  and  N_2 
    2  A    between atoms: C_1  and  C_6 
    3  A    between atoms: C_6  and  C_10 
    4  A    between atoms: N_7  and  C_10 
    5  A    between atoms: N_7  and  C_15 
    6  A    between atoms: N_11  and  C_17 
    7  A    between atoms: C_15  and  C_16 
    8  A    between atoms: C_16  and  C_17 

>  <COMPND>
    /home/daniil/Downloads/ml_docking_review/databases/Vina/outputs/7XJN_NSD/7XJN_NSD.pdbqt 

>  <AUTHOR>
    GENERATED BY OPEN BABEL 3.2.1

>  <MASTER>
        0    0    0    0    0    0    0    0   17    0   17    0

$$$$
