../../databases/Vina/outputs/7D0P_1VU/7D0P_1VU1.pdb
 OpenBabel08242612033D

 59 61  0  0  1  0  0  0  0  0999 V2000
  196.1120    2.5340   94.9710 P   0  0  1  0  0  0  0  0  0  0  0  0
  195.9290    1.2820   95.7810 O   0  0  0  0  0  0  0  0  0  0  0  0
  196.1150    3.8270   95.7560 O   0  0  0  0  0  0  0  0  0  0  0  0
  197.5060    2.4910   94.0870 O   0  0  0  0  0  0  0  0  0  0  0  0
  198.5200    1.6170   94.5560 C   0  0  0  0  0  0  0  0  0  0  0  0
  198.7470    0.5300   93.5120 C   0  0  1  0  0  0  0  0  0  0  0  0
  199.3480   -0.4770   94.1110 O   0  0  0  0  0  0  0  0  0  0  0  0
  198.4220   -1.7630   93.9700 C   0  0  2  0  0  0  0  0  0  0  0  0
  197.1580   -1.2770   93.8070 C   0  0  1  0  0  0  0  0  0  0  0  0
  197.3930   -0.0480   92.9490 C   0  0  2  0  0  0  0  0  0  0  0  0
  198.6360   -2.5190   95.1480 N   0  0  1  0  0  0  0  0  0  0  0  0
  199.4240   -2.1560   96.1570 C   0  0  2  0  0  0  0  0  0  0  0  0
  200.2150   -1.0730   96.3510 N   0  0  0  0  0  0  0  0  0  0  0  0
  199.3470   -3.1130   97.0950 C   0  0  0  0  0  0  0  0  0  0  0  0
  200.9390   -0.9700   97.5090 C   0  0  0  0  0  0  0  0  0  0  0  0
  200.2710   -0.3430   95.6410 H   0  0  0  0  0  0  0  0  0  0  0  0
  200.8680   -1.9390   98.4700 N   0  0  0  0  0  0  0  0  0  0  0  0
  200.0840   -3.0080   98.2600 C   0  0  0  0  0  0  0  0  0  0  0  0
  201.4020   -1.8510   99.3340 H   0  0  0  0  0  0  0  0  0  0  0  0
  200.1840   -3.9140   99.4300 N   0  0  0  0  0  0  0  0  0  0  0  0
  198.5070   -4.0670   96.6740 N   0  0  0  0  0  0  0  0  0  0  0  0
  198.0570   -3.6920   95.4680 C   0  0  0  0  0  0  0  0  0  0  0  0
  198.2570   -4.9190   97.1750 H   0  0  0  0  0  0  0  0  0  0  0  0
  196.2660   -2.2380   93.1140 O   0  0  0  0  0  0  0  0  0  0  0  0
  195.9460   -1.9030   92.2840 H   0  0  0  0  0  0  0  0  0  0  0  0
  197.6200   -0.3820   91.6370 O   0  0  0  0  0  0  0  0  0  0  0  0
  196.8120    0.4290   90.4560 P   0  0  0  0  0  0  0  0  0  0  0  0
  195.6340   -0.3560   89.9430 O   0  0  0  0  0  0  0  0  0  0  0  0
  197.7320    0.6730   89.2930 O   0  0  0  0  0  0  0  0  0  0  0  0
  196.3640    1.7280   91.0790 O   0  0  0  0  0  0  0  0  0  0  0  0
  194.9750    2.5130   93.8130 O   0  0  0  0  0  0  0  0  0  0  0  0
  193.6690    1.5070   93.6820 P   0  0  2  0  0  0  0  0  0  0  0  0
  193.0650    1.2320   95.0220 O   0  0  0  0  0  0  0  0  0  0  0  0
  194.1170    0.2440   92.9860 O   0  0  0  0  0  0  0  0  0  0  0  0
  192.7290    2.3900   92.6870 O   0  0  0  0  0  0  0  0  0  0  0  0
  193.2230    3.1540   91.6250 C   0  0  0  0  0  0  0  0  0  0  0  0
  192.1130    3.2000   90.5660 C   0  0  0  0  0  0  0  0  0  0  0  0
  190.7660    2.7980   91.1630 C   0  0  0  0  0  0  0  0  0  0  0  0
  192.0210    4.6610   90.0550 C   0  0  0  0  0  0  0  0  0  0  0  0
  192.5940    2.2070   89.5040 C   0  0  1  0  0  0  0  0  0  0  0  0
  192.8930    0.9480   90.0810 O   0  0  0  0  0  0  0  0  0  0  0  0
  192.1130    0.4110   90.1540 H   0  0  0  0  0  0  0  0  0  0  0  0
  191.5850    1.9880   88.3650 C   0  0  0  0  0  0  0  0  0  0  0  0
  191.8150    2.7360   87.1260 N   0  0  0  0  0  0  0  0  0  0  0  0
  192.6390    3.3340   87.0580 H   0  0  0  0  0  0  0  0  0  0  0  0
  190.6380    1.2650   88.4830 O   0  0  0  0  0  0  0  0  0  0  0  0
  190.8920    2.6560   85.9670 C   0  0  0  0  0  0  0  0  0  0  0  0
  191.1330    1.3980   85.1380 C   0  0  0  0  0  0  0  0  0  0  0  0
  189.8960    0.4460   85.1790 C   0  0  0  0  0  0  0  0  0  0  0  0
  188.7320    0.9430   85.8820 N   0  0  0  0  0  0  0  0  0  0  0  0
  188.7820    1.8520   86.3430 H   0  0  0  0  0  0  0  0  0  0  0  0
  189.8940   -0.6160   84.6420 O   0  0  0  0  0  0  0  0  0  0  0  0
  187.5170    0.1960   85.9470 C   0  0  0  0  0  0  0  0  0  0  0  0
  186.4310    1.2020   86.3710 C   0  0  0  0  0  0  0  0  0  0  0  0
  187.0390    2.1440   87.8170 S   0  0  0  0  0  0  0  0  0  0  0  0
  186.2990    1.2160   89.2000 C   0  0  0  0  0  0  0  0  0  0  0  0
  186.9500    0.3990   89.7730 O   0  0  0  0  0  0  0  0  0  0  0  0
  184.8580    1.5290   89.5990 C   0  0  0  0  0  0  0  0  0  0  0  0
  184.3000    0.3850   90.5010 C   0  0  0  0  0  0  0  0  0  0  0  0
  1 31  1  0  0  0  0
  1  4  1  0  0  0  0
  1  3  2  1  0  0  0
  1  2  1  0  0  0  0
  4  5  1  0  0  0  0
  6  5  1  1  0  0  0
  6 10  1  0  0  0  0
  6  7  1  0  0  0  0
  8  7  1  1  0  0  0
  8  9  1  0  0  0  0
  8 11  1  0  0  0  0
  9 10  1  0  0  0  0
  9 24  1  6  0  0  0
 10 26  1  6  0  0  0
 11 22  1  1  0  0  0
 11 12  1  0  0  0  0
 12 13  1  0  0  0  0
 12 14  1  6  0  0  0
 13 16  1  0  0  0  0
 13 15  1  0  0  0  0
 14 21  1  0  0  0  0
 14 18  2  0  0  0  0
 15 17  1  0  0  0  0
 17 18  1  0  0  0  0
 17 19  1  0  0  0  0
 18 20  1  0  0  0  0
 21 22  1  0  0  0  0
 21 23  1  0  0  0  0
 24 25  1  0  0  0  0
 26 27  1  0  0  0  0
 27 29  2  0  0  0  0
 27 28  1  0  0  0  0
 27 30  1  0  0  0  0
 31 32  1  0  0  0  0
 32 35  1  0  0  0  0
 32 34  2  6  0  0  0
 32 33  1  0  0  0  0
 35 36  1  0  0  0  0
 36 37  1  0  0  0  0
 37 40  1  0  0  0  0
 37 39  1  0  0  0  0
 37 38  1  0  0  0  0
 40 43  1  6  0  0  0
 40 41  1  0  0  0  0
 41 42  1  0  0  0  0
 43 44  1  0  0  0  0
 43 46  2  0  0  0  0
 44 47  1  0  0  0  0
 44 45  1  0  0  0  0
 47 48  1  0  0  0  0
 48 49  1  0  0  0  0
 49 52  2  0  0  0  0
 49 50  1  0  0  0  0
 50 53  1  0  0  0  0
 50 51  1  0  0  0  0
 53 54  1  0  0  0  0
 54 55  1  0  0  0  0
 55 56  1  0  0  0  0
 56 58  1  0  0  0  0
 56 57  2  0  0  0  0
 58 59  1  0  0  0  0
M  END
>  <MODEL>
1

>  <REMARK>
 VINA RESULT:    -8.177      0.000      0.000
 INTER + INTRA:         -22.017
 INTER:                 -18.693
 INTRA:                  -3.325
 UNBOUND:                -3.325
  23 active torsions:
  status: ('A' for Active; 'I' for Inactive)
    1  A    between atoms: P_2  and  O_5 
    2  A    between atoms: O_5  and  C_6 
    3  A    between atoms: C_7  and  O_8 
    4  A    between atoms: C_10  and  N_11 
    5  A    between atoms: C_25  and  C_26 
    6  A    between atoms: C_26  and  O_27 
    7  A    between atoms: O_27  and  P_28 
    8  A    between atoms: P_28  and  O_31 
    9  A    between atoms: O_31  and  P_32 
   10  A    between atoms: P_32  and  O_35 
   11  A    between atoms: O_35  and  C_36 
   12  A    between atoms: C_36  and  C_37 
   13  A    between atoms: C_37  and  C_40 
   14  A    between atoms: C_40  and  O_41 
   15  A    between atoms: C_40  and  C_43 
       I    between atoms: C_43  and  N_45 
   16  A    between atoms: N_45  and  C_47 
   17  A    between atoms: C_47  and  C_48 
   18  A    between atoms: C_48  and  C_49 
       I    between atoms: C_49  and  N_51 
   19  A    between atoms: N_51  and  C_53 
   20  A    between atoms: C_53  and  C_54 
   21  A    between atoms: C_54  and  S_55 
   22  A    between atoms: S_55  and  C_56 
   23  A    between atoms: C_56  and  C_58 

>  <COMPND>
    /home/daniil/Downloads/ml_docking_review/databases/Vina/outputs/7D0P_1VU/7D0P_1VU.pdbqt 

>  <AUTHOR>
    GENERATED BY OPEN BABEL 3.2.1

>  <MASTER>
        0    0    0    0    0    0    0    0   59    0   59    0

$$$$
