../../databases/Vina/outputs/7SNE_9XR/7SNE_9XR1.pdb
 OpenBabel08242616453D

 57 61  0  0  1  0  0  0  0  0999 V2000
  -12.9210   61.6970   26.4310 P   0  0  1  0  0  0  0  0  0  0  0  0
  -13.8560   60.6350   26.9260 O   0  0  0  0  0  0  0  0  0  0  0  0
  -13.3640   63.1320   26.5100 O   0  0  0  0  0  0  0  0  0  0  0  0
  -11.5130   61.4780   27.1770 O   0  0  0  0  0  0  0  0  0  0  0  0
  -10.3200   61.2300   26.4560 C   0  0  0  0  0  0  0  0  0  0  0  0
   -9.3430   62.3380   26.8050 C   0  0  2  0  0  0  0  0  0  0  0  0
   -9.7200   63.7360   26.3160 C   0  0  2  0  0  0  0  0  0  0  0  0
   -8.3850   64.4380   26.3670 C   0  0  2  0  0  0  0  0  0  0  0  0
   -7.4750   63.3560   25.8490 C   0  0  1  0  0  0  0  0  0  0  0  0
   -8.0530   62.0810   26.2220 O   0  0  0  0  0  0  0  0  0  0  0  0
  -10.6420   64.4400   27.1440 O   0  0  0  0  0  0  0  0  0  0  0  0
  -11.4100   64.6600   26.6310 H   0  0  0  0  0  0  0  0  0  0  0  0
   -7.9660   64.6980   27.7180 O   0  0  0  0  0  0  0  0  0  0  0  0
   -7.6480   63.8710   28.0590 H   0  0  0  0  0  0  0  0  0  0  0  0
   -7.2180   63.2780   24.3930 N   0  0  1  0  0  0  0  0  0  0  0  0
   -6.6330   62.2520   23.8000 C   0  0  2  0  0  0  0  0  0  0  0  0
   -5.9830   61.1520   24.2400 N   0  0  0  0  0  0  0  0  0  0  0  0
   -6.7330   62.5430   22.3760 C   0  0  0  0  0  0  0  0  0  0  0  0
   -5.4670   60.3330   23.3260 C   0  0  0  0  0  0  0  0  0  0  0  0
   -5.8920   60.9560   25.2370 H   0  0  0  0  0  0  0  0  0  0  0  0
   -5.5310   60.5320   21.9940 N   0  0  0  0  0  0  0  0  0  0  0  0
   -6.1380   61.5930   21.4530 C   0  0  0  0  0  0  0  0  0  0  0  0
   -5.0990   59.8460   21.3750 H   0  0  0  0  0  0  0  0  0  0  0  0
   -6.1810   61.7810   20.1320 N   0  0  0  0  0  0  0  0  0  0  0  0
   -5.7630   61.1140   19.4830 H   0  0  0  0  0  0  0  0  0  0  0  0
   -6.6430   62.5900   19.7190 H   0  0  0  0  0  0  0  0  0  0  0  0
   -7.4170   63.6850   22.2080 N   0  0  0  0  0  0  0  0  0  0  0  0
   -7.7020   64.1150   23.4460 C   0  0  0  0  0  0  0  0  0  0  0  0
   -7.6670   64.1310   21.3260 H   0  0  0  0  0  0  0  0  0  0  0  0
  -12.5830   61.4040   24.8710 O   0  0  0  0  0  0  0  0  0  0  0  0
  -13.4890   61.4890   23.5610 P   0  0  2  0  0  0  0  0  0  0  0  0
  -14.8670   61.9470   23.9260 O   0  0  0  0  0  0  0  0  0  0  0  0
  -13.3160   60.2300   22.7510 O   0  0  0  0  0  0  0  0  0  0  0  0
  -12.6750   62.6330   22.7980 O   0  0  0  0  0  0  0  0  0  0  0  0
  -12.2420   62.4140   21.4640 C   0  0  0  0  0  0  0  0  0  0  0  0
  -10.7380   62.6490   21.3610 C   0  0  1  0  0  0  0  0  0  0  0  0
  -10.0390   61.7760   22.2510 O   0  0  0  0  0  0  0  0  0  0  0  0
  -10.0630   60.4990   21.6060 C   0  0  1  0  0  0  0  0  0  0  0  0
  -10.0260   60.7820   20.0950 C   0  0  1  0  0  0  0  0  0  0  0  0
  -10.2290   62.2770   19.9900 C   0  0  2  0  0  0  0  0  0  0  0  0
   -8.9960   59.6590   22.0970 N   0  0  0  0  0  0  0  0  0  0  0  0
   -8.0840   59.7010   21.6420 H   0  0  0  0  0  0  0  0  0  0  0  0
   -9.1710   58.8050   23.1600 C   0  0  0  0  0  0  0  0  0  0  0  0
  -10.3460   58.7590   23.8780 C   0  0  0  0  0  0  0  0  0  0  0  0
  -10.5000   57.8120   24.8870 C   0  0  0  0  0  0  0  0  0  0  0  0
   -9.5030   56.8840   25.1360 C   0  0  0  0  0  0  0  0  0  0  0  0
   -8.3400   56.9090   24.3930 C   0  0  0  0  0  0  0  0  0  0  0  0
   -8.1700   57.8680   23.4000 C   0  0  0  0  0  0  0  0  0  0  0  0
  -11.7400   57.7700   25.7160 C   0  0  0  0  0  0  0  0  0  0  0  0
  -12.9000   58.1910   25.2380 N   0  0  0  0  0  0  0  0  0  0  0  0
  -12.9790   58.5620   24.2910 H   0  0  0  0  0  0  0  0  0  0  0  0
  -13.7470   58.1630   25.8060 H   0  0  0  0  0  0  0  0  0  0  0  0
  -11.6440   57.3200   26.8660 O   0  0  0  0  0  0  0  0  0  0  0  0
   -8.8190   60.4410   19.4530 O   0  0  0  0  0  0  0  0  0  0  0  0
   -8.0480   60.4610   20.0070 H   0  0  0  0  0  0  0  0  0  0  0  0
   -9.0010   62.9500   19.7720 O   0  0  0  0  0  0  0  0  0  0  0  0
   -8.9920   63.3870   18.9280 H   0  0  0  0  0  0  0  0  0  0  0  0
  1 30  1  0  0  0  0
  1  3  2  1  0  0  0
  1  2  1  0  0  0  0
  1  4  1  0  0  0  0
  4  5  1  0  0  0  0
  6  5  1  6  0  0  0
  6 10  1  0  0  0  0
  6  7  1  0  0  0  0
  7  8  1  0  0  0  0
  7 11  1  1  0  0  0
  8  9  1  0  0  0  0
  8 13  1  1  0  0  0
  9 15  1  0  0  0  0
  9 10  1  6  0  0  0
 11 12  1  0  0  0  0
 13 14  1  0  0  0  0
 15 28  1  6  0  0  0
 15 16  1  0  0  0  0
 16 18  1  6  0  0  0
 16 17  1  0  0  0  0
 17 19  1  0  0  0  0
 17 20  1  0  0  0  0
 18 22  2  0  0  0  0
 18 27  1  0  0  0  0
 19 21  1  0  0  0  0
 21 23  1  0  0  0  0
 21 22  1  0  0  0  0
 22 24  1  0  0  0  0
 24 25  1  0  0  0  0
 24 26  1  0  0  0  0
 27 29  1  0  0  0  0
 27 28  1  0  0  0  0
 30 31  1  0  0  0  0
 31 33  2  6  0  0  0
 31 34  1  0  0  0  0
 31 32  1  0  0  0  0
 34 35  1  0  0  0  0
 36 35  1  6  0  0  0
 36 40  1  0  0  0  0
 36 37  1  0  0  0  0
 37 38  1  0  0  0  0
 38 39  1  0  0  0  0
 38 41  1  1  0  0  0
 39 54  1  1  0  0  0
 39 40  1  0  0  0  0
 40 56  1  1  0  0  0
 41 42  1  0  0  0  0
 41 43  1  0  0  0  0
 43 48  2  0  0  0  0
 43 44  1  0  0  0  0
 44 45  2  0  0  0  0
 45 46  1  0  0  0  0
 45 49  1  0  0  0  0
 46 47  2  0  0  0  0
 47 48  1  0  0  0  0
 49 50  1  0  0  0  0
 49 53  2  0  0  0  0
 50 51  1  0  0  0  0
 50 52  1  0  0  0  0
 54 55  1  0  0  0  0
 56 57  1  0  0  0  0
M  END
>  <MODEL>
1

>  <REMARK>
 VINA RESULT:     0.000      0.000      0.000
 INTER + INTRA:          -6.301
 INTER:                   0.000
 INTRA:                  -6.301
 UNBOUND:                -6.301
  16 active torsions:
  status: ('A' for Active; 'I' for Inactive)
       I    between atoms: C_2  and  N_3 
    1  A    between atoms: C_2  and  C_6 
    2  A    between atoms: C_11  and  N_56 
    3  A    between atoms: C_12  and  N_56 
    4  A    between atoms: C_14  and  O_15 
    5  A    between atoms: C_17  and  O_18 
    6  A    between atoms: C_20  and  C_21 
    7  A    between atoms: C_21  and  O_22 
    8  A    between atoms: O_22  and  P_23 
    9  A    between atoms: P_23  and  O_26 
   10  A    between atoms: O_26  and  P_27 
   11  A    between atoms: P_27  and  O_30 
   12  A    between atoms: O_30  and  C_31 
   13  A    between atoms: C_31  and  C_32 
   14  A    between atoms: C_33  and  O_34 
   15  A    between atoms: C_36  and  O_37 
   16  A    between atoms: C_39  and  N_41 

>  <COMPND>
    /home/daniil/Downloads/ml_docking_review/databases/Vina/outputs/7SNE_9XR/7SNE_9XR.pdbqt 

>  <AUTHOR>
    GENERATED BY OPEN BABEL 3.2.1

>  <MASTER>
        0    0    0    0    0    0    0    0   57    0   57    0

$$$$
