../../databases/Vina/outputs/7JMV_4NC/7JMV_4NC1.pdb
 OpenBabel08242616453D

 13 13  0  0  0  0  0  0  0  0999 V2000
   32.9610  -28.5100   -7.8840 C   0  0  0  0  0  0  0  0  0  0  0  0
   33.1400  -27.4290   -7.0620 C   0  0  0  0  0  0  0  0  0  0  0  0
   33.3420  -26.1790   -7.5990 C   0  0  0  0  0  0  0  0  0  0  0  0
   33.3640  -26.0260   -8.9800 C   0  0  0  0  0  0  0  0  0  0  0  0
   33.1810  -27.1110   -9.8160 C   0  0  0  0  0  0  0  0  0  0  0  0
   32.9850  -28.3710   -9.2680 C   0  0  0  0  0  0  0  0  0  0  0  0
   33.4740  -24.6960   -9.5250 N   0  0  0  0  0  0  0  0  0  0  0  0
   32.9780  -23.6550   -8.7420 O   0  0  0  0  0  0  0  0  0  0  0  0
   33.7420  -24.4770  -10.6640 O   0  0  0  0  0  0  0  0  0  0  0  0
   33.1270  -27.6150   -5.6890 O   0  0  0  0  0  0  0  0  0  0  0  0
   33.7870  -27.2100   -5.1380 H   0  0  0  0  0  0  0  0  0  0  0  0
   32.6740  -29.7370   -7.3490 O   0  0  0  0  0  0  0  0  0  0  0  0
   33.2530  -30.4660   -7.5370 H   0  0  0  0  0  0  0  0  0  0  0  0
  1  6  2  0  0  0  0
  1 12  1  0  0  0  0
  1  2  1  0  0  0  0
  2  3  2  0  0  0  0
  2 10  1  0  0  0  0
  3  4  1  0  0  0  0
  4  5  2  0  0  0  0
  4  7  1  0  0  0  0
  5  6  1  0  0  0  0
  7  9  2  0  0  0  0
  7  8  2  0  0  0  0
 10 11  1  0  0  0  0
 12 13  1  0  0  0  0
M  END
>  <MODEL>
1

>  <REMARK>
 VINA RESULT:    -6.537      0.000      0.000
 INTER + INTRA:          -7.351
 INTER:                  -7.301
 INTRA:                  -0.050
 UNBOUND:                -0.050
  3 active torsions:
  status: ('A' for Active; 'I' for Inactive)
    1  A    between atoms: C_1  and  O_7 
    2  A    between atoms: C_2  and  O_9 
    3  A    between atoms: C_4  and  N_11 

>  <COMPND>
    /home/daniil/Downloads/ml_docking_review/databases/Vina/outputs/7JMV_4NC/7JMV_4NC.pdbqt 

>  <AUTHOR>
    GENERATED BY OPEN BABEL 3.2.1

>  <MASTER>
        0    0    0    0    0    0    0    0   13    0   13    0

$$$$
