../../databases/Vina/outputs/6YQW_82I/6YQW_82I1.pdb
 OpenBabel08242616453D

 13 13  0  0  1  0  0  0  0  0999 V2000
    0.7610   13.7070   10.1950 C   0  0  0  0  0  0  0  0  0  0  0  0
    1.3780   13.8630   11.5100 C   0  0  0  0  0  0  0  0  0  0  0  0
    0.7310   13.8320   12.6490 N   0  0  0  0  0  0  0  0  0  0  0  0
    1.2130   14.0010   13.5330 H   0  0  0  0  0  0  0  0  0  0  0  0
   -0.6140   13.5650   12.6160 N   0  0  0  0  0  0  0  0  0  0  0  0
   -1.2220   13.4810   13.9300 C   0  0  0  0  0  0  0  0  0  0  0  0
   -1.3930   13.3540   11.4670 C   0  0  0  0  0  0  0  0  0  0  0  0
   -2.6180   13.1270   11.5250 O   0  0  0  0  0  0  0  0  0  0  0  0
   -0.6320   13.4700   10.2400 C   0  0  2  0  0  0  0  0  0  0  0  0
   -1.5620   13.2490    8.8100 Cl  0  0  0  0  0  0  0  0  0  0  0  0
    1.4620   13.7880    9.0700 N   0  0  0  0  0  0  0  0  0  0  0  0
    2.5750   14.7180    8.9020 C   0  0  0  0  0  0  0  0  0  0  0  0
    1.2120   13.1760    8.2930 H   0  0  0  0  0  0  0  0  0  0  0  0
  1 11  1  0  0  0  0
  1  9  1  0  0  0  0
  1  2  2  0  0  0  0
  2  3  1  0  0  0  0
  3  5  1  0  0  0  0
  3  4  1  0  0  0  0
  5  7  1  0  0  0  0
  5  6  1  0  0  0  0
  7  9  1  0  0  0  0
  7  8  2  0  0  0  0
  9 10  1  1  0  0  0
 11 13  1  0  0  0  0
 11 12  1  0  0  0  0
M  END
>  <MODEL>
1

>  <REMARK>
 VINA RESULT:    -5.657      0.000      0.000
 INTER + INTRA:          -6.020
 INTER:                  -5.988
 INTRA:                  -0.032
 UNBOUND:                -0.032
  1 active torsions:
  status: ('A' for Active; 'I' for Inactive)
    1  A    between atoms: N_2  and  C_4 

>  <COMPND>
    /home/daniil/Downloads/ml_docking_review/databases/Vina/outputs/6YQW_82I/6YQW_82I.pdbqt 

>  <AUTHOR>
    GENERATED BY OPEN BABEL 3.2.1

>  <MASTER>
        0    0    0    0    0    0    0    0   13    0   13    0

$$$$
