../../databases/Vina/outputs/7KM8_WPD/7KM8_WPD1.pdb
 OpenBabel08242612033D

 35 36  0  0  1  0  0  0  0  0999 V2000
  -21.8150  -13.7890  -23.6980 C   0  0  0  0  0  0  0  0  0  0  0  0
  -23.3340  -13.8770  -23.7150 C   0  0  0  0  0  0  0  0  0  0  0  0
  -23.9650  -12.7170  -22.9410 C   0  0  0  0  0  0  0  0  0  0  0  0
  -23.7020  -11.5230  -23.6660 O   0  0  0  0  0  0  0  0  0  0  0  0
  -24.1310  -10.3180  -23.1690 C   0  0  0  0  0  0  0  0  0  0  0  0
  -24.8780  -10.1780  -22.0190 C   0  0  0  0  0  0  0  0  0  0  0  0
  -25.2590   -8.9040  -21.6170 C   0  0  0  0  0  0  0  0  0  0  0  0
  -24.9220   -7.7850  -22.3550 C   0  0  0  0  0  0  0  0  0  0  0  0
  -24.1610   -7.9330  -23.5190 C   0  0  0  0  0  0  0  0  0  0  0  0
  -23.7790   -9.2020  -23.9080 C   0  0  0  0  0  0  0  0  0  0  0  0
  -23.7750   -6.7280  -24.3680 C   0  0  0  0  0  0  0  0  0  0  0  0
  -22.4740   -6.8380  -25.1890 C   0  0  2  0  0  0  0  0  0  0  0  0
  -21.3520   -6.3140  -24.3290 C   0  0  0  0  0  0  0  0  0  0  0  0
  -20.7730   -7.3400  -23.6070 F   0  0  0  0  0  0  0  0  0  0  0  0
  -21.8180   -5.4060  -23.3850 F   0  0  0  0  0  0  0  0  0  0  0  0
  -22.6340   -5.9370  -26.4630 C   0  0  0  0  0  0  0  0  0  0  0  0
  -21.5670   -5.4790  -26.9030 O   0  0  0  0  0  0  0  0  0  0  0  0
  -23.7980   -5.7910  -26.8800 O   0  0  0  0  0  0  0  0  0  0  0  0
  -21.4340  -14.0310  -22.3070 O   0  0  0  0  0  0  0  0  0  0  0  0
  -20.1470  -13.6420  -21.9390 C   0  0  0  0  0  0  0  0  0  0  0  0
  -19.9080  -12.4970  -21.2610 C   0  0  1  0  0  0  0  0  0  0  0  0
  -18.6610  -12.1500  -20.8870 N   0  0  0  0  0  0  0  0  0  0  0  0
  -17.6590  -12.9740  -21.2060 C   0  0  1  0  0  0  0  0  0  0  0  0
  -18.4870  -11.2850  -20.3770 H   0  0  0  0  0  0  0  0  0  0  0  0
  -17.7960  -14.1170  -21.8720 N   0  0  0  0  0  0  0  0  0  0  0  0
  -19.0330  -14.4660  -22.2420 C   0  0  0  0  0  0  0  0  0  0  0  0
  -16.9910  -14.7030  -22.0920 H   0  0  0  0  0  0  0  0  0  0  0  0
  -20.9990  -11.5340  -20.8870 C   0  0  0  0  0  0  0  0  0  0  0  0
  -20.9000  -10.3340  -21.8590 C   0  0  0  0  0  0  0  0  0  0  0  0
  -16.4040  -12.6240  -20.8320 N   0  0  0  0  0  0  0  0  0  0  0  0
  -16.2220  -12.5480  -19.8300 H   0  0  0  0  0  0  0  0  0  0  0  0
  -15.7120  -12.4620  -21.5640 H   0  0  0  0  0  0  0  0  0  0  0  0
  -19.1940  -15.6100  -22.9040 N   0  0  0  0  0  0  0  0  0  0  0  0
  -19.5980  -15.6170  -23.8400 H   0  0  0  0  0  0  0  0  0  0  0  0
  -18.9040  -16.4750  -22.4480 H   0  0  0  0  0  0  0  0  0  0  0  0
  1  2  1  0  0  0  0
  1 19  1  0  0  0  0
  2  3  1  0  0  0  0
  3  4  1  0  0  0  0
  4  5  1  0  0  0  0
  5 10  2  0  0  0  0
  5  6  1  0  0  0  0
  6  7  2  0  0  0  0
  7  8  1  0  0  0  0
  8  9  2  0  0  0  0
  9 11  1  0  0  0  0
  9 10  1  0  0  0  0
 12 11  1  1  0  0  0
 12 16  1  0  0  0  0
 12 13  1  0  0  0  0
 13 14  1  0  0  0  0
 13 15  1  0  0  0  0
 16 17  2  0  0  0  0
 16 18  1  0  0  0  0
 19 20  1  0  0  0  0
 20 26  2  0  0  0  0
 20 21  1  0  0  0  0
 21 22  1  0  0  0  0
 21 28  1  6  0  0  0
 22 23  1  0  0  0  0
 22 24  1  0  0  0  0
 23 25  1  0  0  0  0
 23 30  1  6  0  0  0
 25 26  1  0  0  0  0
 25 27  1  0  0  0  0
 26 33  1  0  0  0  0
 28 29  1  0  0  0  0
 30 32  1  0  0  0  0
 30 31  1  0  0  0  0
 33 34  1  0  0  0  0
 33 35  1  0  0  0  0
M  END
>  <MODEL>
1

>  <REMARK>
 VINA RESULT:    -9.694      0.000      0.000
 INTER + INTRA:         -18.289
 INTER:                 -16.494
 INTRA:                  -1.795
 UNBOUND:                -1.795
  13 active torsions:
  status: ('A' for Active; 'I' for Inactive)
    1  A    between atoms: C_1  and  O_2 
    2  A    between atoms: O_2  and  C_8 
    3  A    between atoms: C_4  and  C_5 
    4  A    between atoms: C_6  and  N_25 
    5  A    between atoms: C_7  and  N_30 
    6  A    between atoms: C_8  and  C_9 
    7  A    between atoms: C_9  and  C_10 
    8  A    between atoms: C_10  and  O_33 
    9  A    between atoms: C_11  and  O_33 
   10  A    between atoms: C_15  and  C_16 
   11  A    between atoms: C_16  and  C_17 
   12  A    between atoms: C_17  and  C_18 
   13  A    between atoms: C_17  and  C_19 

>  <COMPND>
    /home/daniil/Downloads/ml_docking_review/databases/Vina/outputs/7KM8_WPD/7KM8_WPD.pdbqt 

>  <AUTHOR>
    GENERATED BY OPEN BABEL 3.2.1

>  <MASTER>
        0    0    0    0    0    0    0    0   35    0   35    0

$$$$
