../../databases/Vina/outputs/5SAK_ZRY/5SAK_ZRY3.pdb
 OpenBabel08242616453D

 23 25  0  0  0  0  0  0  0  0999 V2000
   33.8890    6.9060   58.4800 N   0  0  0  0  0  0  0  0  0  0  0  0
   34.6910    7.0140   57.8590 H   0  0  0  0  0  0  0  0  0  0  0  0
   34.2090    6.6120   59.4030 H   0  0  0  0  0  0  0  0  0  0  0  0
   30.3970    7.2480   58.2160 C   0  0  0  0  0  0  0  0  0  0  0  0
   32.1860    7.5240   56.7910 C   0  0  0  0  0  0  0  0  0  0  0  0
   30.0750    8.0750   55.7560 C   0  0  0  0  0  0  0  0  0  0  0  0
   30.8040    7.6330   56.8580 C   0  0  0  0  0  0  0  0  0  0  0  0
   30.7610    8.3990   54.5890 C   0  0  0  0  0  0  0  0  0  0  0  0
   32.1460    8.2730   54.5170 C   0  0  0  0  0  0  0  0  0  0  0  0
   32.8700    7.8350   55.6120 C   0  0  0  0  0  0  0  0  0  0  0  0
   31.5910    6.9640   58.9180 N   0  0  0  0  0  0  0  0  0  0  0  0
   31.6430    6.6910   59.8990 H   0  0  0  0  0  0  0  0  0  0  0  0
   32.6410    7.1050   58.1040 C   0  0  0  0  0  0  0  0  0  0  0  0
   29.2060    7.1760   58.6350 N   0  0  0  0  0  0  0  0  0  0  0  0
   28.6040    6.3830   58.4120 H   0  0  0  0  0  0  0  0  0  0  0  0
   28.7810    8.2000   59.3880 N   0  0  0  0  0  0  0  0  0  0  0  0
   28.7380    8.1030   60.4030 H   0  0  0  0  0  0  0  0  0  0  0  0
   28.3960    9.4100   58.7820 C   0  0  0  0  0  0  0  0  0  0  0  0
   29.0620   10.5990   59.0520 C   0  0  0  0  0  0  0  0  0  0  0  0
   28.6500   11.7770   58.4440 C   0  0  0  0  0  0  0  0  0  0  0  0
   27.6120   11.7720   57.5410 C   0  0  0  0  0  0  0  0  0  0  0  0
   26.9420   10.5990   57.2780 C   0  0  0  0  0  0  0  0  0  0  0  0
   27.3170    9.4240   57.9060 C   0  0  0  0  0  0  0  0  0  0  0  0
  1  2  1  0  0  0  0
  1 13  1  0  0  0  0
  1  3  1  0  0  0  0
  4  7  2  0  0  0  0
  4 14  1  0  0  0  0
  4 11  1  0  0  0  0
  5 10  1  0  0  0  0
  5  7  1  0  0  0  0
  5 13  2  0  0  0  0
  6  8  2  0  0  0  0
  6  7  1  0  0  0  0
  8  9  1  0  0  0  0
  9 10  2  0  0  0  0
 11 13  1  0  0  0  0
 11 12  1  0  0  0  0
 14 15  1  0  0  0  0
 14 16  1  0  0  0  0
 16 18  1  0  0  0  0
 16 17  1  0  0  0  0
 18 23  2  0  0  0  0
 18 19  1  0  0  0  0
 19 20  2  0  0  0  0
 20 21  1  0  0  0  0
 21 22  2  0  0  0  0
 22 23  1  0  0  0  0
M  END
>  <MODEL>
3

>  <REMARK>
 VINA RESULT:     0.000     12.308     13.914
 INTER + INTRA:          -0.756
 INTER:                   0.000
 INTRA:                  -0.756
 UNBOUND:                -0.757
  3 active torsions:
  status: ('A' for Active; 'I' for Inactive)
    1  A    between atoms: C_4  and  N_6 
    2  A    between atoms: C_5  and  N_12 
    3  A    between atoms: N_6  and  N_12 

>  <COMPND>
    /home/daniil/Downloads/ml_docking_review/databases/Vina/outputs/5SAK_ZRY/5SAK_ZRY.pdbqt 

>  <AUTHOR>
    GENERATED BY OPEN BABEL 3.2.1

>  <MASTER>
        0    0    0    0    0    0    0    0   23    0   23    0

$$$$
