../../databases/Vina/outputs/6YYO_Q1K/6YYO_Q1K1.pdb
 OpenBabel08242616453D

 22 24  0  0  0  0  0  0  0  0999 V2000
   15.8530   15.1940   18.4460 C   0  0  0  0  0  0  0  0  0  0  0  0
   16.5000   14.0320   18.0560 C   0  0  0  0  0  0  0  0  0  0  0  0
   15.9700   16.3900   17.7150 C   0  0  0  0  0  0  0  0  0  0  0  0
   18.0540   15.2430   15.2310 C   0  0  0  0  0  0  0  0  0  0  0  0
   16.7540   16.4980   16.5770 N   0  0  0  0  0  0  0  0  0  0  0  0
   16.8550   17.3440   16.0160 H   0  0  0  0  0  0  0  0  0  0  0  0
   17.2460   14.2290   16.9270 C   0  0  0  0  0  0  0  0  0  0  0  0
   18.0110   13.3210   16.3560 N   0  0  0  0  0  0  0  0  0  0  0  0
   18.2130   12.3700   16.6650 H   0  0  0  0  0  0  0  0  0  0  0  0
   18.4450   13.9500   15.2920 N   0  0  0  0  0  0  0  0  0  0  0  0
   19.0220   13.5060   14.5780 H   0  0  0  0  0  0  0  0  0  0  0  0
   17.3250   15.4020   16.3340 N   0  0  0  0  0  0  0  0  0  0  0  0
   15.3750   17.6100   18.0530 N   0  0  0  0  0  0  0  0  0  0  0  0
   13.9960   17.5500   18.5930 C   0  0  0  0  0  0  0  0  0  0  0  0
   13.3000   18.9160   18.6550 C   0  0  0  0  0  0  0  0  0  0  0  0
   14.1830   19.8350   19.4030 N   0  0  0  0  0  0  0  0  0  0  0  0
   15.4580   19.9740   18.6210 C   0  0  0  0  0  0  0  0  0  0  0  0
   16.1310   18.6440   18.7080 C   0  0  0  0  0  0  0  0  0  0  0  0
   13.5060   21.1480   19.9930 S   0  0  0  0  0  0  0  0  0  0  0  0
   12.5360   21.4740   19.0460 O   0  0  0  0  0  0  0  0  0  0  0  0
   14.7650   22.4010   20.2260 C   0  0  0  0  0  0  0  0  0  0  0  0
   13.2130   20.6980   21.3050 O   0  0  0  0  0  0  0  0  0  0  0  0
  1  3  2  0  0  0  0
  1  2  1  0  0  0  0
  2  7  2  0  0  0  0
  3  5  1  0  0  0  0
  3 13  1  0  0  0  0
  4 10  1  0  0  0  0
  4 12  1  0  0  0  0
  5  6  1  0  0  0  0
  5 12  1  0  0  0  0
  7 12  1  0  0  0  0
  7  8  1  0  0  0  0
  8 10  1  0  0  0  0
  8  9  1  0  0  0  0
 10 11  1  0  0  0  0
 13 14  1  0  0  0  0
 13 18  1  0  0  0  0
 14 15  1  0  0  0  0
 15 16  1  0  0  0  0
 16 17  1  0  0  0  0
 16 19  1  0  0  0  0
 17 18  1  0  0  0  0
 19 20  2  0  0  0  0
 19 21  1  0  0  0  0
 19 22  2  0  0  0  0
M  END
>  <MODEL>
1

>  <REMARK>
 VINA RESULT:    -8.260      0.000      0.000
 INTER + INTRA:          -9.504
 INTER:                  -9.225
 INTRA:                  -0.279
 UNBOUND:                -0.279
  2 active torsions:
  status: ('A' for Active; 'I' for Inactive)
    1  A    between atoms: C_7  and  N_14 
    2  A    between atoms: S_10  and  N_13 

>  <COMPND>
    /home/daniil/Downloads/ml_docking_review/databases/Vina/outputs/6YYO_Q1K/6YYO_Q1K.pdbqt 

>  <AUTHOR>
    GENERATED BY OPEN BABEL 3.2.1

>  <MASTER>
        0    0    0    0    0    0    0    0   22    0   22    0

$$$$
