../../databases/Vina/outputs/7ZZW_KKW/7ZZW_KKW1.pdb
 OpenBabel08242612033D

 32 36  0  0  1  0  0  0  0  0999 V2000
   23.9140  -18.3790    0.3440 C   0  0  0  0  0  0  0  0  0  0  0  0
   25.1830  -18.2680   -0.5060 C   0  0  0  0  0  0  0  0  0  0  0  0
   24.4230  -16.1150   -1.3710 C   0  0  0  0  0  0  0  0  0  0  0  0
   23.2090  -16.1720   -0.4550 C   0  0  0  0  0  0  0  0  0  0  0  0
   21.5700  -18.0060   -0.3920 C   0  0  0  0  0  0  0  0  0  0  0  0
   22.8340  -17.5640   -0.2160 N   0  0  0  0  0  0  0  0  0  0  0  0
   25.5360  -16.8690   -0.7860 N   0  0  2  0  0  0  0  0  0  0  0  0
   20.6770  -17.2510   -0.7570 O   0  0  0  0  0  0  0  0  0  0  0  0
   21.2440  -19.4710   -0.1350 C   0  0  2  0  0  0  0  0  0  0  0  0
   19.9730  -19.8510   -0.8010 N   0  0  0  0  0  4  0  0  0  0  0  0
   19.0040  -20.0350    0.2990 C   0  0  0  0  0  0  0  0  0  0  0  0
   19.6670  -19.1900   -1.5150 H   0  0  0  0  0  0  0  0  0  0  0  0
   20.0560  -20.6590   -1.4180 H   0  0  0  0  0  0  0  0  0  0  0  0
   19.8450  -20.5630    1.4730 C   0  0  1  0  0  0  0  0  0  0  0  0
   21.1070  -19.7000    1.3900 C   0  0  0  0  0  0  0  0  0  0  0  0
   19.1210  -20.5070    2.8050 C   0  0  0  0  0  0  0  0  0  0  0  0
   19.8480  -20.3950    3.9820 C   0  0  0  0  0  0  0  0  0  0  0  0
   19.2220  -20.3430    5.2100 C   0  0  0  0  0  0  0  0  0  0  0  0
   17.8520  -20.4000    5.2840 C   0  0  0  0  0  0  0  0  0  0  0  0
   17.1200  -20.5100    4.1240 C   0  0  0  0  0  0  0  0  0  0  0  0
   15.3840  -20.5810    4.2180 Cl  0  0  0  0  0  0  0  0  0  0  0  0
   17.7320  -20.5640    2.8860 C   0  0  0  0  0  0  0  0  0  0  0  0
   26.8210  -16.6680   -1.3090 C   0  0  2  0  0  0  0  0  0  0  0  0
   26.8920  -15.9750   -2.4650 N   0  0  0  0  0  0  0  0  0  0  0  0
   28.0920  -15.7440   -3.0310 C   0  0  0  0  0  0  0  0  0  0  0  0
   26.0410  -15.6290   -2.9080 H   0  0  0  0  0  0  0  0  0  0  0  0
   29.2930  -16.1760   -2.5020 C   0  0  0  0  0  0  0  0  0  0  0  0
   29.2740  -16.9040   -1.2990 C   0  0  0  0  0  0  0  0  0  0  0  0
   30.2930  -17.4950   -0.4820 C   0  0  0  0  0  0  0  0  0  0  0  0
   28.0050  -17.1520   -0.6980 C   0  0  0  0  0  0  0  0  0  0  0  0
   29.8020  -18.1180    0.6210 C   0  0  0  0  0  0  0  0  0  0  0  0
   28.0880  -18.0460    0.7660 S   0  0  0  0  0  0  0  0  0  0  0  0
  1  2  1  0  0  0  0
  1  6  1  0  0  0  0
  3  7  1  0  0  0  0
  3  4  1  0  0  0  0
  4  6  1  0  0  0  0
  5  8  2  0  0  0  0
  5  6  1  0  0  0  0
  7  2  1  6  0  0  0
  7 23  1  0  0  0  0
  9  5  1  1  0  0  0
  9 10  1  0  0  0  0
  9 15  1  0  0  0  0
 10 12  1  0  0  0  0
 10 13  1  0  0  0  0
 10 11  1  0  0  0  0
 11 14  1  0  0  0  0
 14 15  1  0  0  0  0
 14 16  1  1  0  0  0
 16 22  2  0  0  0  0
 16 17  1  0  0  0  0
 17 18  2  0  0  0  0
 18 19  1  0  0  0  0
 19 20  2  0  0  0  0
 20 22  1  0  0  0  0
 20 21  1  0  0  0  0
 23 24  1  0  0  0  0
 23 30  1  6  0  0  0
 24 25  1  0  0  0  0
 24 26  1  0  0  0  0
 25 27  2  0  0  0  0
 27 28  1  0  0  0  0
 28 30  2  0  0  0  0
 28 29  1  0  0  0  0
 29 31  2  0  0  0  0
 30 32  1  0  0  0  0
 31 32  1  0  0  0  0
M  END
>  <MODEL>
1

>  <REMARK>
 VINA RESULT:   -10.353      0.000      0.000
 INTER + INTRA:         -12.170
 INTER:                 -12.169
 INTRA:                  -0.001
 UNBOUND:                -0.001
  3 active torsions:
  status: ('A' for Active; 'I' for Inactive)
    1  A    between atoms: C_7  and  C_21 
    2  A    between atoms: C_8  and  C_11 
    3  A    between atoms: C_18  and  N_27 
       I    between atoms: C_21  and  N_26 

>  <COMPND>
    /home/daniil/Downloads/ml_docking_review/databases/Vina/outputs/7ZZW_KKW/7ZZW_KKW.pdbqt 

>  <AUTHOR>
    GENERATED BY OPEN BABEL 3.2.1

>  <MASTER>
        0    0    0    0    0    0    0    0   32    0   32    0

$$$$
