../../databases/Vina/outputs/7WDT_NGS/7WDT_NGS1.pdb
 OpenBabel08242616453D

 23 23  0  0  1  0  0  0  0  0999 V2000
   25.0070   -7.3020   -4.2250 C   0  0  1  0  0  0  0  0  0  0  0  0
   24.2070   -6.1290   -4.7890 C   0  0  1  0  0  0  0  0  0  0  0  0
   22.8030   -6.1390   -4.1960 C   0  0  2  0  0  0  0  0  0  0  0  0
   22.4110   -7.5120   -3.6750 C   0  0  1  0  0  0  0  0  0  0  0  0
   23.3620   -7.9630   -2.5700 C   0  0  2  0  0  0  0  0  0  0  0  0
   24.7370   -7.9620   -2.9950 O   0  0  0  0  0  0  0  0  0  0  0  0
   23.0690   -9.3570   -2.0900 C   0  0  0  0  0  0  0  0  0  0  0  0
   23.7710  -10.2500   -2.9330 O   0  0  0  0  0  0  0  0  0  0  0  0
   22.9090  -11.2070   -3.8180 S   0  0  0  0  0  0  0  0  0  0  0  0
   22.9880  -10.6630   -5.1360 O   0  0  0  0  0  0  0  0  0  0  0  0
   23.5350  -12.4830   -3.7420 O   0  0  0  0  0  0  0  0  0  0  0  0
   21.5830  -11.1350   -3.2770 O   0  0  0  0  0  0  0  0  0  0  0  0
   21.0830   -7.4430   -3.1680 O   0  0  0  0  0  0  0  0  0  0  0  0
   20.7770   -8.3160   -2.9530 H   0  0  0  0  0  0  0  0  0  0  0  0
   21.9170   -5.7400   -5.2330 O   0  0  0  0  0  0  0  0  0  0  0  0
   21.0490   -5.5900   -4.8780 H   0  0  0  0  0  0  0  0  0  0  0  0
   24.6690   -8.3130   -5.1250 O   0  0  0  0  0  0  0  0  0  0  0  0
   25.4690   -8.8240   -5.1110 H   0  0  0  0  0  0  0  0  0  0  0  0
   24.8000   -4.8210   -4.6350 N   0  0  0  0  0  0  0  0  0  0  0  0
   24.7730   -3.9490   -5.6600 C   0  0  0  0  0  0  0  0  0  0  0  0
   24.2180   -4.2310   -6.7260 O   0  0  0  0  0  0  0  0  0  0  0  0
   25.4010   -2.6060   -5.4150 C   0  0  0  0  0  0  0  0  0  0  0  0
   25.2390   -4.5590   -3.7520 H   0  0  0  0  0  0  0  0  0  0  0  0
  1 17  1  6  0  0  0
  1  2  1  0  0  0  0
  1  6  1  0  0  0  0
  2 19  1  1  0  0  0
  2  3  1  0  0  0  0
  3 15  1  6  0  0  0
  3  4  1  0  0  0  0
  4 13  1  1  0  0  0
  4  5  1  0  0  0  0
  5  6  1  0  0  0  0
  5  7  1  6  0  0  0
  7  8  1  0  0  0  0
  8  9  1  0  0  0  0
  9 10  1  0  0  0  0
  9 11  1  0  0  0  0
  9 12  1  0  0  0  0
 13 14  1  0  0  0  0
 15 16  1  0  0  0  0
 17 18  1  0  0  0  0
 19 20  1  0  0  0  0
 19 23  1  0  0  0  0
 20 21  2  0  0  0  0
 20 22  1  0  0  0  0
M  END
>  <MODEL>
1

>  <REMARK>
 VINA RESULT:    -6.410      0.000      0.000
 INTER + INTRA:          -9.664
 INTER:                  -8.472
 INTRA:                  -1.193
 UNBOUND:                -1.193
  7 active torsions:
  status: ('A' for Active; 'I' for Inactive)
    1  A    between atoms: C_1  and  O_7 
    2  A    between atoms: C_2  and  N_13 
    3  A    between atoms: C_3  and  O_9 
    4  A    between atoms: C_4  and  O_22 
    5  A    between atoms: C_5  and  C_6 
    6  A    between atoms: C_6  and  O_12 
    7  A    between atoms: O_12  and  S_18 
       I    between atoms: N_13  and  C_15 

>  <COMPND>
    /home/daniil/Downloads/ml_docking_review/databases/Vina/outputs/7WDT_NGS/7WDT_NGS.pdbqt 

>  <AUTHOR>
    GENERATED BY OPEN BABEL 3.2.1

>  <MASTER>
        0    0    0    0    0    0    0    0   23    0   23    0

$$$$
