../../databases/Vina/outputs/8AUH_L9I/8AUH_L9I1.pdb
 OpenBabel08242616453D

 13 12  0  0  1  0  0  0  0  0999 V2000
   18.8340   17.7520  -26.5280 N   0  0  0  0  0  0  0  0  0  0  0  0
   18.6210   18.6850  -26.8800 H   0  0  0  0  0  0  0  0  0  0  0  0
   18.1700   16.7600  -26.9050 C   0  0  1  0  0  0  0  0  0  0  0  0
   17.0610   16.9340  -27.9130 C   0  0  0  0  0  0  0  0  0  0  0  0
   15.6120   16.9510  -27.4440 C   0  0  0  0  0  0  0  0  0  0  0  0
   17.3580   17.0720  -29.0550 O   0  0  0  0  0  0  0  0  0  0  0  0
   18.4700   15.3480  -26.4310 C   0  0  0  0  0  0  0  0  0  0  0  0
   17.6510   14.6250  -25.9500 O   0  0  0  0  0  0  0  0  0  0  0  0
   19.7710   14.9180  -26.6220 O   0  0  0  0  0  0  0  0  0  0  0  0
   19.9300   13.9900  -27.6590 C   0  0  0  0  0  0  0  0  0  0  0  0
   20.7330   14.6480  -28.7760 C   0  0  0  0  0  0  0  0  0  0  0  0
   19.8670   17.5550  -25.6210 O   0  0  0  0  0  0  0  0  0  0  0  0
   20.2180   18.3080  -25.1600 H   0  0  0  0  0  0  0  0  0  0  0  0
  1  3  1  0  0  0  0
  1  2  1  0  0  0  0
  1 12  1  0  0  0  0
  3  4  1  6  0  0  0
  3  7  1  0  0  0  0
  4  6  2  0  0  0  0
  4  5  1  0  0  0  0
  7  9  1  0  0  0  0
  7  8  2  0  0  0  0
  9 10  1  0  0  0  0
 10 11  1  0  0  0  0
 12 13  1  0  0  0  0
M  END
>  <MODEL>
1

>  <REMARK>
 VINA RESULT:    -5.147      0.000      0.000
 INTER + INTRA:          -6.933
 INTER:                  -6.501
 INTRA:                  -0.433
 UNBOUND:                -0.433
  5 active torsions:
  status: ('A' for Active; 'I' for Inactive)
    1  A    between atoms: N_1  and  O_11 
    2  A    between atoms: C_3  and  C_9 
    3  A    between atoms: C_5  and  C_9 
    4  A    between atoms: C_5  and  O_10 
    5  A    between atoms: C_6  and  O_10 

>  <COMPND>
    /home/daniil/Downloads/ml_docking_review/databases/Vina/outputs/8AUH_L9I/8AUH_L9I.pdbqt 

>  <AUTHOR>
    GENERATED BY OPEN BABEL 3.2.1

>  <MASTER>
        0    0    0    0    0    0    0    0   13    0   13    0

$$$$
