../../databases/Vina/outputs/8EAD_UY0/8EAD_UY01.pdb
 OpenBabel08242616453D

 43 46  0  0  1  0  0  0  0  0999 V2000
   13.5470   -6.0180   -0.1120 C   0  0  1  0  0  0  0  0  0  0  0  0
   15.4340   -4.3920    0.4880 C   0  0  0  0  0  0  0  0  0  0  0  0
   13.9640   -4.8290    0.4640 C   0  0  0  0  0  0  0  0  0  0  0  0
   12.9930   -4.0620    1.1020 C   0  0  0  0  0  0  0  0  0  0  0  0
   11.4180   -5.5900    0.4900 C   0  0  1  0  0  0  0  0  0  0  0  0
   11.7350   -4.4590    1.0890 N   0  0  0  0  0  0  0  0  0  0  0  0
   11.0130   -3.8960    1.5390 H   0  0  0  0  0  0  0  0  0  0  0  0
   12.2790   -6.3860   -0.1420 N   0  0  0  0  0  0  0  0  0  0  0  0
   11.9750   -7.2330   -0.6230 H   0  0  0  0  0  0  0  0  0  0  0  0
   14.5150   -6.8220   -0.7720 N   0  0  0  0  0  0  0  0  0  0  0  0
   15.2540   -7.2500   -0.2140 H   0  0  0  0  0  0  0  0  0  0  0  0
   14.5010   -7.0630   -2.2030 C   0  0  0  0  0  0  0  0  0  0  0  0
   13.5930   -6.4680   -3.0710 C   0  0  0  0  0  0  0  0  0  0  0  0
   13.6550   -6.7920   -4.4190 C   0  0  0  0  0  0  0  0  0  0  0  0
   14.6210   -7.6700   -4.8450 C   0  0  0  0  0  0  0  0  0  0  0  0
   14.7130   -8.1060   -6.5700 Cl  0  0  0  0  0  0  0  0  0  0  0  0
   15.4910   -8.2690   -3.9920 C   0  0  0  0  0  0  0  0  0  0  0  0
   15.4490   -7.9630   -2.6450 C   0  0  0  0  0  0  0  0  0  0  0  0
   12.7720   -6.2140   -5.4070 N   0  0  0  0  0  0  0  0  0  0  0  0
   13.0950   -5.4270   -5.9680 H   0  0  0  0  0  0  0  0  0  0  0  0
   11.2230   -6.8170   -5.6470 S   0  0  0  0  0  0  0  0  0  0  0  0
   10.8950   -6.9820   -7.0770 O   0  0  0  0  0  0  0  0  0  0  0  0
   11.2240   -8.1490   -5.0090 O   0  0  0  0  0  0  0  0  0  0  0  0
   10.0220   -5.7610   -4.8430 C   0  0  0  0  0  0  0  0  0  0  0  0
   10.1410   -5.8450   -3.3310 C   0  0  0  0  0  0  0  0  0  0  0  0
    8.6570   -6.2360   -5.2830 C   0  0  0  0  0  0  0  0  0  0  0  0
   10.2080   -4.3590   -5.3780 C   0  0  0  0  0  0  0  0  0  0  0  0
   10.0480   -5.9310    0.5590 N   0  0  0  0  0  0  0  0  0  0  0  0
    9.4370   -5.4900   -0.1290 H   0  0  0  0  0  0  0  0  0  0  0  0
    9.4130   -6.8350    1.4980 C   0  0  0  0  0  0  0  0  0  0  0  0
    8.4010   -7.5790    0.9100 C   0  0  0  0  0  0  0  0  0  0  0  0
    7.6990   -8.5080    1.6680 C   0  0  0  0  0  0  0  0  0  0  0  0
    8.0340   -8.7000    2.9930 C   0  0  0  0  0  0  0  0  0  0  0  0
    9.0520   -7.9710    3.5610 C   0  0  0  0  0  0  0  0  0  0  0  0
    9.7620   -7.0270    2.8050 C   0  0  0  0  0  0  0  0  0  0  0  0
    7.3510   -9.6550    3.8010 O   0  0  0  0  0  0  0  0  0  0  0  0
    6.0090   -9.9200    3.4620 C   0  0  0  0  0  0  0  0  0  0  0  0
    5.0790   -8.9380    4.2070 C   0  0  0  0  0  0  0  0  0  0  0  0
    4.0690   -8.6770    3.6000 N   0  0  0  0  0  0  0  0  0  0  0  0
    3.8320   -7.4150    3.6190 C   0  0  0  0  0  0  0  0  0  0  0  0
    4.2570   -6.8130    2.1730 C   0  0  0  0  0  0  0  0  0  0  0  0
    4.0490   -7.7260    1.3380 C   0  0  0  0  0  0  0  0  0  0  0  0
    4.1580   -9.0460    2.1350 C   0  0  0  0  0  0  0  0  0  0  0  0
  1 10  1  6  0  0  0
  1  8  1  0  0  0  0
  1  3  1  0  0  0  0
  2  3  1  0  0  0  0
  3  4  2  0  0  0  0
  4  6  1  0  0  0  0
  5  8  1  0  0  0  0
  5 28  1  1  0  0  0
  5  6  1  0  0  0  0
  6  7  1  0  0  0  0
  8  9  1  0  0  0  0
 10 12  1  0  0  0  0
 10 11  1  0  0  0  0
 12 13  2  0  0  0  0
 12 18  1  0  0  0  0
 13 14  1  0  0  0  0
 14 19  1  0  0  0  0
 14 15  2  0  0  0  0
 15 16  1  0  0  0  0
 15 17  1  0  0  0  0
 17 18  2  0  0  0  0
 19 20  1  0  0  0  0
 19 21  1  0  0  0  0
 21 22  2  0  0  0  0
 21 23  2  0  0  0  0
 21 24  1  0  0  0  0
 24 27  1  0  0  0  0
 24 26  1  0  0  0  0
 24 25  1  0  0  0  0
 28 29  1  0  0  0  0
 28 30  1  0  0  0  0
 30 31  2  0  0  0  0
 30 35  1  0  0  0  0
 31 32  1  0  0  0  0
 32 33  2  0  0  0  0
 33 34  1  0  0  0  0
 33 36  1  0  0  0  0
 34 35  2  0  0  0  0
 36 37  1  0  0  0  0
 37 38  1  0  0  0  0
 38 39  1  0  0  0  0
 39 43  1  0  0  0  0
 39 40  1  0  0  0  0
 40 41  1  0  0  0  0
 41 42  1  0  0  0  0
 42 43  1  0  0  0  0
M  END
>  <MODEL>
1

>  <REMARK>
 VINA RESULT:    -8.008      0.000      0.000
 INTER + INTRA:         -15.113
 INTER:                 -13.158
 INTRA:                  -1.955
 UNBOUND:                -1.955
  11 active torsions:
  status: ('A' for Active; 'I' for Inactive)
    1  A    between atoms: C_1  and  O_39 
    2  A    between atoms: C_2  and  C_16 
    3  A    between atoms: C_2  and  N_32 
    4  A    between atoms: C_6  and  N_35 
    5  A    between atoms: C_7  and  N_35 
    6  A    between atoms: C_12  and  N_30 
    7  A    between atoms: C_13  and  N_30 
    8  A    between atoms: C_16  and  O_39 
    9  A    between atoms: C_22  and  N_37 
   10  A    between atoms: C_23  and  S_42 
   11  A    between atoms: N_37  and  S_42 

>  <COMPND>
    /home/daniil/Downloads/ml_docking_review/databases/Vina/outputs/8EAD_UY0/8EAD_UY0.pdbqt 

>  <AUTHOR>
    GENERATED BY OPEN BABEL 3.2.1

>  <MASTER>
        0    0    0    0    0    0    0    0   43    0   43    0

$$$$
