../../databases/Vina/outputs/7PIH_7QW/7PIH_7QW1.pdb
 OpenBabel08242612033D

 28 31  0  0  1  0  0  0  0  0999 V2000
   13.0440  -25.0740  -28.3180 C   0  0  0  0  0  0  0  0  0  0  0  0
   12.3120  -26.1840  -28.7440 C   0  0  0  0  0  0  0  0  0  0  0  0
   11.3320  -26.0520  -29.7130 C   0  0  0  0  0  0  0  0  0  0  0  0
   11.0600  -24.8080  -30.2540 C   0  0  0  0  0  0  0  0  0  0  0  0
   12.7600  -23.8370  -28.8850 C   0  0  0  0  0  0  0  0  0  0  0  0
   11.7500  -23.6860  -29.8240 C   0  0  0  0  0  0  0  0  0  0  0  0
   14.0980  -25.2110  -27.2880 C   0  0  0  0  0  0  0  0  0  0  0  0
   14.5840  -24.1010  -26.6170 C   0  0  0  0  0  0  0  0  0  0  0  0
   15.5440  -24.2230  -25.5850 C   0  0  0  0  0  0  0  0  0  0  0  0
   16.0570  -23.1070  -24.8780 C   0  0  0  0  0  0  0  0  0  0  0  0
   16.0040  -25.5210  -25.2310 C   0  0  0  0  0  0  0  0  0  0  0  0
   16.9560  -23.3170  -23.8680 C   0  0  0  0  0  0  0  0  0  0  0  0
   17.3770  -24.5410  -23.4720 N   0  0  0  0  0  0  0  0  0  0  0  0
   16.9150  -25.6000  -24.1350 C   0  0  0  0  0  0  0  0  0  0  0  0
   18.0270  -24.6490  -22.6930 H   0  0  0  0  0  0  0  0  0  0  0  0
   17.2940  -26.7730  -23.7890 O   0  0  0  0  0  0  0  0  0  0  0  0
   15.5060  -26.6300  -25.9540 C   0  0  0  0  0  0  0  0  0  0  0  0
   14.5920  -26.4710  -26.9490 C   0  0  0  0  0  0  0  0  0  0  0  0
   11.2690  -22.3030  -30.1710 C   0  0  0  0  0  0  0  0  0  0  0  0
   12.3670  -21.4860  -30.7140 N   0  0  0  0  0  0  0  0  0  0  0  0
   12.9220  -22.0130  -31.9650 C   0  0  0  0  0  0  0  0  0  0  0  0
   13.3310  -20.8190  -32.8260 C   0  0  1  0  0  0  0  0  0  0  0  0
   12.9970  -19.5870  -31.9890 C   0  0  0  0  0  0  0  0  0  0  0  0
   11.9510  -20.1140  -31.0320 C   0  0  0  0  0  0  0  0  0  0  0  0
   14.7770  -20.8710  -33.0320 N   0  0  0  0  0  4  0  0  0  0  0  0
   15.2990  -20.5010  -32.2380 H   0  0  0  0  0  0  0  0  0  0  0  0
   15.1420  -21.8230  -33.0090 H   0  0  0  0  0  0  0  0  0  0  0  0
   14.9970  -20.3900  -33.9040 H   0  0  0  0  0  0  0  0  0  0  0  0
  1  5  2  0  0  0  0
  1  2  1  0  0  0  0
  1  7  1  0  0  0  0
  2  3  2  0  0  0  0
  3  4  1  0  0  0  0
  4  6  2  0  0  0  0
  5  6  1  0  0  0  0
  6 19  1  0  0  0  0
  7 18  2  0  0  0  0
  7  8  1  0  0  0  0
  8  9  2  0  0  0  0
  9 11  1  0  0  0  0
  9 10  1  0  0  0  0
 10 12  2  0  0  0  0
 11 17  2  0  0  0  0
 11 14  1  0  0  0  0
 12 13  1  0  0  0  0
 13 14  1  0  0  0  0
 13 15  1  0  0  0  0
 14 16  2  0  0  0  0
 17 18  1  0  0  0  0
 19 20  1  0  0  0  0
 20 21  1  0  0  0  0
 20 24  1  0  0  0  0
 21 22  1  0  0  0  0
 22 25  1  1  0  0  0
 22 23  1  0  0  0  0
 23 24  1  0  0  0  0
 25 28  1  0  0  0  0
 25 27  1  0  0  0  0
 25 26  1  0  0  0  0
M  END
>  <MODEL>
1

>  <REMARK>
 VINA RESULT:    -9.501      0.000      0.000
 INTER + INTRA:         -12.151
 INTER:                 -11.444
 INTRA:                  -0.706
 UNBOUND:                -0.706
  4 active torsions:
  status: ('A' for Active; 'I' for Inactive)
    1  A    between atoms: C_12  and  C_13 
    2  A    between atoms: C_18  and  C_19 
    3  A    between atoms: C_19  and  N_20 
    4  A    between atoms: C_24  and  N_25 

>  <COMPND>
    /home/daniil/Downloads/ml_docking_review/databases/Vina/outputs/7PIH_7QW/7PIH_7QW.pdbqt 

>  <AUTHOR>
    GENERATED BY OPEN BABEL 3.2.1

>  <MASTER>
        0    0    0    0    0    0    0    0   28    0   28    0

$$$$
