../../databases/Vina/outputs/7Z1Q_NIO/7Z1Q_NIO1.pdb
 OpenBabel08242616453D

 10 10  0  0  0  0  0  0  0  0999 V2000
    2.1690   28.8440   -6.5950 N   0  0  0  0  0  0  0  0  0  0  0  0
    2.3340   28.3790   -5.7020 H   0  0  0  0  0  0  0  0  0  0  0  0
    1.3650   28.3010   -7.5270 C   0  0  0  0  0  0  0  0  0  0  0  0
    1.1160   28.8830   -8.7610 C   0  0  0  0  0  0  0  0  0  0  0  0
    1.7460   30.0910   -9.0350 C   0  0  0  0  0  0  0  0  0  0  0  0
    2.5630   30.6710   -8.0830 C   0  0  0  0  0  0  0  0  0  0  0  0
    2.7440   30.0150   -6.8840 C   0  0  0  0  0  0  0  0  0  0  0  0
    0.2200   28.2300   -9.7570 C   0  0  0  0  0  0  0  0  0  0  0  0
   -0.9620   28.5420   -9.8520 O   0  0  0  0  0  0  0  0  0  0  0  0
    0.7880   27.3300  -10.5220 O   0  0  0  0  0  0  0  0  0  0  0  0
  1  3  1  0  0  0  0
  1  7  1  0  0  0  0
  1  2  1  0  0  0  0
  3  4  1  0  0  0  0
  4  8  1  0  0  0  0
  4  5  2  0  0  0  0
  5  6  1  0  0  0  0
  6  7  2  0  0  0  0
  8 10  2  0  0  0  0
  8  9  1  0  0  0  0
M  END
>  <MODEL>
1

>  <REMARK>
 VINA RESULT:    -6.243      0.000      0.000
 INTER + INTRA:          -6.625
 INTER:                  -6.608
 INTRA:                  -0.017
 UNBOUND:                -0.017
  1 active torsions:
  status: ('A' for Active; 'I' for Inactive)
    1  A    between atoms: C_4  and  C_8 

>  <COMPND>
    /home/daniil/Downloads/ml_docking_review/databases/Vina/outputs/7Z1Q_NIO/7Z1Q_NIO.pdbqt 

>  <AUTHOR>
    GENERATED BY OPEN BABEL 3.2.1

>  <MASTER>
        0    0    0    0    0    0    0    0   10    0   10    0

$$$$
