../../databases/Vina/outputs/7BKA_4JC/7BKA_4JC1.pdb
 OpenBabel08242616453D

 14 14  0  0  0  0  0  0  0  0999 V2000
   18.4140   53.0060   13.3970 C   0  0  0  0  0  0  0  0  0  0  0  0
   18.8170   51.6840   13.5330 C   0  0  0  0  0  0  0  0  0  0  0  0
   19.5370   51.0590   12.5080 C   0  0  0  0  0  0  0  0  0  0  0  0
   18.7640   53.7110   12.2410 C   0  0  0  0  0  0  0  0  0  0  0  0
   19.4720   53.0900   11.2330 C   0  0  0  0  0  0  0  0  0  0  0  0
   19.8640   51.7780   11.3510 C   0  0  0  0  0  0  0  0  0  0  0  0
   17.5040   53.7490   14.6480 S   0  0  0  0  0  0  0  0  0  0  0  0
   16.1840   52.7970   14.9540 O   0  0  0  0  0  0  0  0  0  0  0  0
   16.9270   55.0430   14.2420 O   0  0  0  0  0  0  0  0  0  0  0  0
   18.3460   53.9820   15.7040 N   0  0  0  0  0  0  0  0  0  0  0  0
   19.2390   54.4570   15.5670 H   0  0  0  0  0  0  0  0  0  0  0  0
   18.0290   53.6570   16.6180 H   0  0  0  0  0  0  0  0  0  0  0  0
   20.6690   51.1640   10.2130 C   0  0  0  0  0  0  0  0  0  0  0  0
   21.9550   51.9900    9.9680 C   0  0  0  0  0  0  0  0  0  0  0  0
  1  4  2  0  0  0  0
  1  2  1  0  0  0  0
  1  7  1  0  0  0  0
  2  3  2  0  0  0  0
  3  6  1  0  0  0  0
  4  5  1  0  0  0  0
  5  6  2  0  0  0  0
  6 13  1  0  0  0  0
  7  9  2  0  0  0  0
  7  8  2  0  0  0  0
  7 10  1  0  0  0  0
 10 11  1  0  0  0  0
 10 12  1  0  0  0  0
 13 14  1  0  0  0  0
M  END
>  <MODEL>
1

>  <REMARK>
 VINA RESULT:    -7.288      0.000      0.000
 INTER + INTRA:          -8.491
 INTER:                  -8.353
 INTRA:                  -0.138
 UNBOUND:                -0.138
  3 active torsions:
  status: ('A' for Active; 'I' for Inactive)
    1  A    between atoms: S_2  and  N_4 
    2  A    between atoms: S_2  and  C_7 
    3  A    between atoms: C_12  and  C_13 

>  <COMPND>
    /home/daniil/Downloads/ml_docking_review/databases/Vina/outputs/7BKA_4JC/7BKA_4JC.pdbqt 

>  <AUTHOR>
    GENERATED BY OPEN BABEL 3.2.1

>  <MASTER>
        0    0    0    0    0    0    0    0   14    0   14    0

$$$$
