../../databases/Vina/outputs/8ACL_LQL/8ACL_LQL1.pdb
 OpenBabel08242616453D

 33 36  0  0  1  0  0  0  0  0999 V2000
   11.6230    1.4740   19.4680 N   0  0  0  0  0  0  0  0  0  0  0  0
   10.3410    0.5190   21.2970 C   0  0  2  0  0  0  0  0  0  0  0  0
   11.3610    0.2370   20.1900 C   0  0  0  0  0  0  0  0  0  0  0  0
   12.1410    2.5130   20.3520 C   0  0  0  0  0  0  0  0  0  0  0  0
   11.3570    1.7280   18.1750 C   0  0  0  0  0  0  0  0  0  0  0  0
   11.1480    2.7850   21.4490 C   0  0  0  0  0  0  0  0  0  0  0  0
   10.8320    1.5650   22.1970 N   0  0  0  0  0  0  0  0  0  0  0  0
   11.5160    2.8350   17.6950 O   0  0  0  0  0  0  0  0  0  0  0  0
   10.0970   -0.8070   22.0100 C   0  0  0  0  0  0  0  0  0  0  0  0
    9.1840   -1.5440   21.6470 O   0  0  0  0  0  0  0  0  0  0  0  0
   10.9650   -1.1130   22.9820 N   0  0  0  0  0  0  0  0  0  0  0  0
   11.7860   -0.5250   23.1160 H   0  0  0  0  0  0  0  0  0  0  0  0
   10.7680   -2.2520   23.8430 C   0  0  0  0  0  0  0  0  0  0  0  0
   10.0130   -1.8300   25.0660 C   0  0  0  0  0  0  0  0  0  0  0  0
    8.3450   -2.0970   25.1650 S   0  0  0  0  0  0  0  0  0  0  0  0
    8.2400   -1.3210   26.6650 C   0  0  0  0  0  0  0  0  0  0  0  0
    9.4360   -0.8730   27.0930 C   0  0  0  0  0  0  0  0  0  0  0  0
   10.4820   -1.1570   26.1810 C   0  0  0  0  0  0  0  0  0  0  0  0
   10.1050    1.8000   23.3790 C   0  0  0  0  0  0  0  0  0  0  0  0
   10.7340    2.3790   24.4650 C   0  0  0  0  0  0  0  0  0  0  0  0
   10.0370    2.6170   25.6340 C   0  0  0  0  0  0  0  0  0  0  0  0
    8.6990    2.2720   25.7250 C   0  0  0  0  0  0  0  0  0  0  0  0
    8.0510    1.7110   24.6400 C   0  0  0  0  0  0  0  0  0  0  0  0
    7.8820    2.5160   27.2330 Cl  0  0  0  0  0  0  0  0  0  0  0  0
    6.3420    1.3320   24.7150 Cl  0  0  0  0  0  0  0  0  0  0  0  0
    8.7390    1.4620   23.4630 C   0  0  0  0  0  0  0  0  0  0  0  0
   10.7900    0.6270   17.3310 C   0  0  0  0  0  0  0  0  0  0  0  0
   11.5370   -0.4690   16.9310 C   0  0  0  0  0  0  0  0  0  0  0  0
   10.9750   -1.4040   16.0770 C   0  0  0  0  0  0  0  0  0  0  0  0
    9.6790   -1.2090   15.6540 C   0  0  0  0  0  0  0  0  0  0  0  0
    8.9250   -0.1700   16.0480 N   0  0  0  0  0  0  0  0  0  0  0  0
    9.4890    0.7220   16.8720 C   0  0  0  0  0  0  0  0  0  0  0  0
    7.9610   -0.0640   15.7320 H   0  0  0  0  0  0  0  0  0  0  0  0
  1  5  1  0  0  0  0
  1  3  1  0  0  0  0
  1  4  1  0  0  0  0
  2  3  1  0  0  0  0
  2  9  1  1  0  0  0
  2  7  1  0  0  0  0
  4  6  1  0  0  0  0
  5 27  1  0  0  0  0
  5  8  2  0  0  0  0
  6  7  1  0  0  0  0
  7 19  1  0  0  0  0
  9 10  2  0  0  0  0
  9 11  1  0  0  0  0
 11 12  1  0  0  0  0
 11 13  1  0  0  0  0
 13 14  1  0  0  0  0
 14 15  1  0  0  0  0
 14 18  2  0  0  0  0
 15 16  1  0  0  0  0
 16 17  2  0  0  0  0
 17 18  1  0  0  0  0
 19 26  2  0  0  0  0
 19 20  1  0  0  0  0
 20 21  2  0  0  0  0
 21 22  1  0  0  0  0
 22 23  2  0  0  0  0
 22 24  1  0  0  0  0
 23 26  1  0  0  0  0
 23 25  1  0  0  0  0
 27 32  2  0  0  0  0
 27 28  1  0  0  0  0
 28 29  2  0  0  0  0
 29 30  1  0  0  0  0
 30 31  1  0  0  0  0
 31 33  1  0  0  0  0
 31 32  1  0  0  0  0
M  END
>  <MODEL>
1

>  <REMARK>
 VINA RESULT:    -8.922      0.000      0.000
 INTER + INTRA:         -12.547
 INTER:                 -11.530
 INTRA:                  -1.017
 UNBOUND:                -1.017
  5 active torsions:
  status: ('A' for Active; 'I' for Inactive)
       I    between atoms: N_1  and  C_23 
    1  A    between atoms: C_6  and  C_17 
    2  A    between atoms: C_9  and  N_29 
    3  A    between atoms: C_12  and  C_23 
       I    between atoms: N_15  and  C_17 
    4  A    between atoms: N_15  and  C_19 
    5  A    between atoms: C_19  and  C_26 

>  <COMPND>
    /home/daniil/Downloads/ml_docking_review/databases/Vina/outputs/8ACL_LQL/8ACL_LQL.pdbqt 

>  <AUTHOR>
    GENERATED BY OPEN BABEL 3.2.1

>  <MASTER>
        0    0    0    0    0    0    0    0   33    0   33    0

$$$$
