../../databases/Vina/outputs/7SGV_L30/7SGV_L301.pdb
 OpenBabel08242616453D

 21 23  0  0  0  0  0  0  0  0999 V2000
   -3.1080   70.3650   43.2850 O   0  0  0  0  0  0  0  0  0  0  0  0
   -3.0260   69.4950   42.3960 C   0  0  0  0  0  0  0  0  0  0  0  0
   -2.5470   69.6630   41.1090 N   0  0  0  0  0  0  0  0  0  0  0  0
   -2.5790   68.8580   40.4850 H   0  0  0  0  0  0  0  0  0  0  0  0
   -2.0290   70.8370   40.6050 C   0  0  0  0  0  0  0  0  0  0  0  0
   -2.6590   71.4700   39.4020 C   0  0  0  0  0  0  0  0  0  0  0  0
   -3.9080   71.0500   38.9050 C   0  0  0  0  0  0  0  0  0  0  0  0
   -1.9500   72.6030   38.7510 C   0  0  0  0  0  0  0  0  0  0  0  0
   -4.4700   71.7130   37.8020 C   0  0  0  0  0  0  0  0  0  0  0  0
   -3.7980   72.7930   37.2100 C   0  0  0  0  0  0  0  0  0  0  0  0
   -2.5550   73.2200   37.6590 C   0  0  0  0  0  0  0  0  0  0  0  0
   -0.7100   73.0440   39.2370 C   0  0  0  0  0  0  0  0  0  0  0  0
   -0.1490   72.4200   40.3580 C   0  0  0  0  0  0  0  0  0  0  0  0
   -0.7920   71.3440   41.0170 C   0  0  0  0  0  0  0  0  0  0  0  0
   -3.4150   68.0470   42.7580 C   0  0  0  0  0  0  0  0  0  0  0  0
   -4.4570   67.7750   43.6610 C   0  0  0  0  0  0  0  0  0  0  0  0
   -4.8260   66.5140   43.9190 N   0  0  0  0  0  0  0  0  0  0  0  0
   -4.2130   65.4640   43.3540 C   0  0  0  0  0  0  0  0  0  0  0  0
   -5.5970   66.3470   44.5660 H   0  0  0  0  0  0  0  0  0  0  0  0
   -3.1510   65.6520   42.4730 C   0  0  0  0  0  0  0  0  0  0  0  0
   -2.7650   66.9510   42.1630 C   0  0  0  0  0  0  0  0  0  0  0  0
  1  2  2  0  0  0  0
  2  3  1  0  0  0  0
  2 15  1  0  0  0  0
  3  4  1  0  0  0  0
  3  5  1  0  0  0  0
  5  6  2  0  0  0  0
  5 14  1  0  0  0  0
  6  8  1  0  0  0  0
  6  7  1  0  0  0  0
  7  9  2  0  0  0  0
  8 11  1  0  0  0  0
  8 12  2  0  0  0  0
  9 10  1  0  0  0  0
 10 11  2  0  0  0  0
 12 13  1  0  0  0  0
 13 14  2  0  0  0  0
 15 21  2  0  0  0  0
 15 16  1  0  0  0  0
 16 17  1  0  0  0  0
 17 18  1  0  0  0  0
 17 19  1  0  0  0  0
 18 20  2  0  0  0  0
 20 21  1  0  0  0  0
M  END
>  <MODEL>
1

>  <REMARK>
 VINA RESULT:    -7.052      0.000      0.000
 INTER + INTRA:          -8.256
 INTER:                  -7.877
 INTRA:                  -0.379
 UNBOUND:                -0.379
  2 active torsions:
  status: ('A' for Active; 'I' for Inactive)
       I    between atoms: C_2  and  N_10 
    1  A    between atoms: C_2  and  C_3 
    2  A    between atoms: N_10  and  C_12 

>  <COMPND>
    /home/daniil/Downloads/ml_docking_review/databases/Vina/outputs/7SGV_L30/7SGV_L30.pdbqt 

>  <AUTHOR>
    GENERATED BY OPEN BABEL 3.2.1

>  <MASTER>
        0    0    0    0    0    0    0    0   21    0   21    0

$$$$
