../../databases/Vina/outputs/7O1T_5X8/7O1T_5X81.pdb
 OpenBabel08242616453D

 35 37  0  0  1  0  0  0  0  0999 V2000
  -13.6640   14.2930  -23.3940 C   0  0  1  0  0  0  0  0  0  0  0  0
  -13.6880   12.9030  -23.7950 O   0  0  0  0  0  0  0  0  0  0  0  0
  -12.9800   14.9430  -24.5860 C   0  0  2  0  0  0  0  0  0  0  0  0
  -11.8920   13.8790  -24.8810 C   0  0  2  0  0  0  0  0  0  0  0  0
  -12.3770   12.5730  -24.1680 C   0  0  2  0  0  0  0  0  0  0  0  0
  -12.4550   11.4620  -25.1780 N   0  0  0  0  0  0  0  0  0  0  0  0
  -13.3470   11.2210  -26.1640 C   0  0  0  0  0  0  0  0  0  0  0  0
  -12.9380   10.1260  -26.8080 N   0  0  0  0  0  0  0  0  0  0  0  0
  -11.7970    9.6770  -26.2380 C   0  0  0  0  0  0  0  0  0  0  0  0
  -13.4110    9.6960  -27.6030 H   0  0  0  0  0  0  0  0  0  0  0  0
  -10.9840    8.6240  -26.5040 C   0  0  2  0  0  0  0  0  0  0  0  0
  -11.5210   10.5200  -25.2120 C   0  0  0  0  0  0  0  0  0  0  0  0
   -9.8860    8.4350  -25.7360 N   0  0  0  0  0  0  0  0  0  0  0  0
   -9.5860    9.2900  -24.6590 C   0  0  0  0  0  0  0  0  0  0  0  0
   -9.2610    7.6560  -25.9420 H   0  0  0  0  0  0  0  0  0  0  0  0
  -10.4500   10.3610  -24.4080 N   0  0  0  0  0  0  0  0  0  0  0  0
  -10.2740   11.0060  -23.6370 H   0  0  0  0  0  0  0  0  0  0  0  0
  -11.2750    7.7740  -27.5460 N   0  0  0  0  0  0  0  0  0  0  0  0
  -11.3620    6.7690  -27.3960 H   0  0  0  0  0  0  0  0  0  0  0  0
  -11.4010    8.1450  -28.4880 H   0  0  0  0  0  0  0  0  0  0  0  0
  -10.5740   14.2700  -24.3960 O   0  0  0  0  0  0  0  0  0  0  0  0
  -10.3820   13.9220  -23.5330 H   0  0  0  0  0  0  0  0  0  0  0  0
  -12.4000   16.2110  -24.2330 O   0  0  0  0  0  0  0  0  0  0  0  0
  -13.0570   16.8220  -23.9200 H   0  0  0  0  0  0  0  0  0  0  0  0
  -15.1060   14.8080  -23.0370 C   0  0  0  0  0  0  0  0  0  0  0  0
  -16.1870   15.3240  -24.4440 S   0  0  0  0  0  0  0  0  0  0  0  0
  -16.6350   17.0000  -23.7790 C   0  0  0  0  0  0  0  0  0  0  0  0
  -15.9700   18.1240  -24.6350 C   0  0  2  0  0  0  0  0  0  0  0  0
  -15.0700   17.5360  -25.6190 N   0  0  0  0  0  4  0  0  0  0  0  0
  -14.8100   18.2040  -26.3450 H   0  0  0  0  0  0  0  0  0  0  0  0
  -14.1420   17.3660  -25.2340 H   0  0  0  0  0  0  0  0  0  0  0  0
  -15.4840   16.6890  -26.0090 H   0  0  0  0  0  0  0  0  0  0  0  0
  -15.1790   19.1280  -23.7550 C   0  0  0  0  0  0  0  0  0  0  0  0
  -13.9340   19.0410  -23.7150 O   0  0  0  0  0  0  0  0  0  0  0  0
  -15.8630   19.9660  -23.1390 O   0  0  0  0  0  0  0  0  0  0  0  0
  1  3  1  0  0  0  0
  1  2  1  0  0  0  0
  1 25  1  6  0  0  0
  2  5  1  0  0  0  0
  3  4  1  0  0  0  0
  3 23  1  1  0  0  0
  4 21  1  1  0  0  0
  4  5  1  0  0  0  0
  5  6  1  6  0  0  0
  6  7  1  0  0  0  0
  6 12  1  0  0  0  0
  7  8  1  0  0  0  0
  8 10  1  0  0  0  0
  8  9  1  0  0  0  0
  9 11  1  0  0  0  0
  9 12  2  0  0  0  0
 11 18  1  6  0  0  0
 11 13  1  0  0  0  0
 12 16  1  0  0  0  0
 13 15  1  0  0  0  0
 13 14  1  0  0  0  0
 14 16  1  0  0  0  0
 16 17  1  0  0  0  0
 18 20  1  0  0  0  0
 18 19  1  0  0  0  0
 21 22  1  0  0  0  0
 23 24  1  0  0  0  0
 25 26  1  0  0  0  0
 26 27  1  0  0  0  0
 28 27  1  1  0  0  0
 28 29  1  0  0  0  0
 28 33  1  0  0  0  0
 29 30  1  0  0  0  0
 29 32  1  0  0  0  0
 29 31  1  0  0  0  0
 33 34  2  0  0  0  0
 33 35  1  0  0  0  0
M  END
>  <MODEL>
1

>  <REMARK>
 VINA RESULT:    -9.320      0.000      0.000
 INTER + INTRA:         -14.696
 INTER:                 -13.678
 INTRA:                  -1.017
 UNBOUND:                -1.017
  10 active torsions:
  status: ('A' for Active; 'I' for Inactive)
    1  A    between atoms: C_6  and  N_33 
    2  A    between atoms: C_11  and  C_13 
    3  A    between atoms: C_13  and  N_14 
    4  A    between atoms: C_13  and  C_18 
    5  A    between atoms: C_18  and  S_19 
    6  A    between atoms: S_19  and  C_20 
    7  A    between atoms: C_20  and  C_21 
    8  A    between atoms: C_23  and  O_24 
    9  A    between atoms: C_26  and  O_27 
   10  A    between atoms: C_29  and  N_30 

>  <COMPND>
    /home/daniil/Downloads/ml_docking_review/databases/Vina/outputs/7O1T_5X8/7O1T_5X8.pdbqt 

>  <AUTHOR>
    GENERATED BY OPEN BABEL 3.2.1

>  <MASTER>
        0    0    0    0    0    0    0    0   35    0   35    0

$$$$
