../../databases/Vina/outputs/7KRU_ATP/7KRU_ATP1.pdb
 OpenBabel08242612033D

 38 40  0  0  1  0  0  0  0  0999 V2000
   46.3530   38.9920  203.8150 C   0  0  1  0  0  0  0  0  0  0  0  0
   45.1680   39.3470  203.0900 O   0  0  0  0  0  0  0  0  0  0  0  0
   46.4960   37.4760  203.7280 C   0  0  2  0  0  0  0  0  0  0  0  0
   45.6080   37.0960  202.5500 C   0  0  2  0  0  0  0  0  0  0  0  0
   44.5220   38.1570  202.6510 C   0  0  2  0  0  0  0  0  0  0  0  0
   43.8700   38.4840  201.3730 N   0  0  1  0  0  0  0  0  0  0  0  0
   42.5530   38.4540  201.1990 C   0  0  1  0  0  0  0  0  0  0  0  0
   41.5030   38.1540  201.9890 N   0  0  0  0  0  0  0  0  0  0  0  0
   42.3290   38.8690  199.8190 C   0  0  0  0  0  0  0  0  0  0  0  0
   40.2550   38.2170  201.5080 C   0  0  0  0  0  0  0  0  0  0  0  0
   41.6600   37.8760  202.9580 H   0  0  0  0  0  0  0  0  0  0  0  0
   39.9810   38.5900  200.2500 N   0  0  0  0  0  0  0  0  0  0  0  0
   40.9320   38.9260  199.3690 C   0  0  0  0  0  0  0  0  0  0  0  0
   39.0060   38.6190  199.9510 H   0  0  0  0  0  0  0  0  0  0  0  0
   40.6590   39.3000  198.0960 N   0  0  0  0  0  0  0  0  0  0  0  0
   39.6890   39.3400  197.7830 H   0  0  0  0  0  0  0  0  0  0  0  0
   41.3830   39.5560  197.4250 H   0  0  0  0  0  0  0  0  0  0  0  0
   43.5370   39.1140  199.2500 N   0  0  0  0  0  0  0  0  0  0  0  0
   44.4690   38.8740  200.2240 C   0  0  0  0  0  0  0  0  0  0  0  0
   43.7140   39.4150  198.2920 H   0  0  0  0  0  0  0  0  0  0  0  0
   45.0860   35.7680  202.6460 O   0  0  0  0  0  0  0  0  0  0  0  0
   45.4690   35.1790  202.0070 H   0  0  0  0  0  0  0  0  0  0  0  0
   46.0300   36.9010  204.9420 O   0  0  0  0  0  0  0  0  0  0  0  0
   45.7670   36.0040  204.7750 H   0  0  0  0  0  0  0  0  0  0  0  0
   47.5320   39.7430  203.2060 C   0  0  0  0  0  0  0  0  0  0  0  0
   47.3660   41.1680  203.3410 O   0  0  0  0  0  0  0  0  0  0  0  0
   48.6450   42.1300  203.4950 P   0  0  2  0  0  0  0  0  0  0  0  0
   48.2250   43.5390  203.1270 O   0  0  0  0  0  0  0  0  0  0  0  0
   49.8420   41.4890  202.8280 O   0  0  0  0  0  0  0  0  0  0  0  0
   48.7980   42.0320  205.1020 O   0  0  0  0  0  0  0  0  0  0  0  0
   50.2330   42.0210  205.8640 P   0  0  1  0  0  0  0  0  0  0  0  0
   50.7680   40.6010  205.8060 O   0  0  0  0  0  0  0  0  0  0  0  0
   51.1230   43.1270  205.3600 O   0  0  0  0  0  0  0  0  0  0  0  0
   49.7100   42.3430  207.3670 O   0  0  0  0  0  0  0  0  0  0  0  0
   50.6120   42.7300  208.6810 P   0  0  0  0  0  0  0  0  0  0  0  0
   50.4180   44.2030  208.7320 O   0  0  0  0  0  0  0  0  0  0  0  0
   52.0170   42.3140  208.3190 O   0  0  0  0  0  0  0  0  0  0  0  0
   49.9900   41.9350  209.7980 O   0  0  0  0  0  0  0  0  0  0  0  0
  1  2  1  0  0  0  0
  1 25  1  6  0  0  0
  1  3  1  0  0  0  0
  3  4  1  0  0  0  0
  3 23  1  1  0  0  0
  4 21  1  1  0  0  0
  4  5  1  0  0  0  0
  5  2  1  6  0  0  0
  5  6  1  0  0  0  0
  6 19  1  1  0  0  0
  6  7  1  0  0  0  0
  7  9  1  1  0  0  0
  7  8  1  0  0  0  0
  8 10  1  0  0  0  0
  8 11  1  0  0  0  0
  9 18  1  0  0  0  0
  9 13  2  0  0  0  0
 10 12  1  0  0  0  0
 12 13  1  0  0  0  0
 12 14  1  0  0  0  0
 13 15  1  0  0  0  0
 15 17  1  0  0  0  0
 15 16  1  0  0  0  0
 18 20  1  0  0  0  0
 18 19  1  0  0  0  0
 21 22  1  0  0  0  0
 23 24  1  0  0  0  0
 25 26  1  0  0  0  0
 26 27  1  0  0  0  0
 27 29  2  6  0  0  0
 27 28  1  0  0  0  0
 27 30  1  0  0  0  0
 30 31  1  0  0  0  0
 31 33  2  6  0  0  0
 31 32  1  0  0  0  0
 31 34  1  0  0  0  0
 34 35  1  0  0  0  0
 35 37  2  0  0  0  0
 35 36  1  0  0  0  0
 35 38  1  0  0  0  0
M  END
>  <MODEL>
1

>  <REMARK>
 VINA RESULT:   -11.317      0.000      0.000
 INTER + INTRA:         -18.192
 INTER:                 -17.271
 INTRA:                  -0.921
 UNBOUND:                -0.921
  10 active torsions:
  status: ('A' for Active; 'I' for Inactive)
    1  A    between atoms: P_1  and  O_8 
    2  A    between atoms: P_5  and  O_12 
    3  A    between atoms: P_5  and  O_8 
    4  A    between atoms: P_9  and  O_13 
    5  A    between atoms: P_9  and  O_12 
    6  A    between atoms: O_13  and  C_14 
    7  A    between atoms: C_14  and  C_15 
    8  A    between atoms: C_17  and  O_18 
    9  A    between atoms: C_20  and  O_21 
   10  A    between atoms: C_23  and  N_24 

>  <COMPND>
    /home/daniil/Downloads/ml_docking_review/databases/Vina/outputs/7KRU_ATP/7KRU_ATP.pdbqt 

>  <AUTHOR>
    GENERATED BY OPEN BABEL 3.2.1

>  <MASTER>
        0    0    0    0    0    0    0    0   38    0   38    0

$$$$
