../../databases/Vina/outputs/7UEY_N0R/7UEY_N0R1.pdb
 OpenBabel08242612043D

 31 33  0  0  0  0  0  0  0  0999 V2000
  -23.3800   18.0840  -19.9570 C   0  0  0  0  0  0  0  0  0  0  0  0
  -21.9020   18.0030  -19.6520 C   0  0  0  0  0  0  0  0  0  0  0  0
  -23.7390   15.9810  -18.7850 C   0  0  0  0  0  0  0  0  0  0  0  0
  -22.2610   15.9290  -18.4770 C   0  0  0  0  0  0  0  0  0  0  0  0
  -25.2900   17.8800  -18.4360 C   0  0  0  0  0  0  0  0  0  0  0  0
  -24.1380   17.3060  -19.0530 N   0  0  0  0  0  0  0  0  0  0  0  0
  -21.6020   16.5570  -19.6420 N   0  0  0  0  0  0  0  0  0  0  0  0
  -25.9300   17.2400  -17.6850 O   0  0  0  0  0  0  0  0  0  0  0  0
  -25.6090   19.3240  -18.8150 C   0  0  0  0  0  0  0  0  0  0  0  0
  -26.9320   19.7240  -18.1950 C   0  0  0  0  0  0  0  0  0  0  0  0
  -26.9250   20.3300  -16.9570 C   0  0  0  0  0  0  0  0  0  0  0  0
  -28.1100   20.7160  -16.3590 C   0  0  0  0  0  0  0  0  0  0  0  0
  -29.3040   20.4810  -17.0290 C   0  0  0  0  0  0  0  0  0  0  0  0
  -29.3080   19.8890  -18.2790 C   0  0  0  0  0  0  0  0  0  0  0  0
  -28.1160   19.5020  -18.8670 C   0  0  0  0  0  0  0  0  0  0  0  0
  -30.5810   20.8810  -16.4840 N   0  0  0  0  0  0  0  0  0  0  0  0
  -31.1820   22.1820  -16.6040 C   0  0  0  0  0  0  0  0  0  0  0  0
  -30.6410   23.0570  -17.1910 O   0  0  0  0  0  0  0  0  0  0  0  0
  -31.1040   20.1750  -15.9670 H   0  0  0  0  0  0  0  0  0  0  0  0
  -32.5430   22.3420  -15.9300 C   0  0  0  0  0  0  0  0  0  0  0  0
  -33.1220   21.0620  -15.8710 O   0  0  0  0  0  0  0  0  0  0  0  0
  -33.0420   20.7650  -14.9730 H   0  0  0  0  0  0  0  0  0  0  0  0
  -20.3300   16.0760  -20.0320 C   0  0  0  0  0  0  0  0  0  0  0  0
  -19.6350   16.8620  -20.7870 N   0  0  0  0  0  0  0  0  0  0  0  0
  -18.4430   16.4450  -21.1830 N   0  0  0  0  0  0  0  0  0  0  0  0
  -19.9940   17.7750  -21.0690 H   0  0  0  0  0  0  0  0  0  0  0  0
  -17.9850   15.2970  -20.8060 C   0  0  0  0  0  0  0  0  0  0  0  0
  -17.8790   17.0380  -21.7920 H   0  0  0  0  0  0  0  0  0  0  0  0
  -16.3870   14.8490  -21.3820 Cl  0  0  0  0  0  0  0  0  0  0  0  0
  -18.6610   14.4010  -19.9900 C   0  0  0  0  0  0  0  0  0  0  0  0
  -19.9320   14.8220  -19.5690 C   0  0  0  0  0  0  0  0  0  0  0  0
  1  2  1  0  0  0  0
  1  6  1  0  0  0  0
  2  7  1  0  0  0  0
  3  6  1  0  0  0  0
  3  4  1  0  0  0  0
  4  7  1  0  0  0  0
  5  6  1  0  0  0  0
  5  9  1  0  0  0  0
  5  8  2  0  0  0  0
  7 23  1  0  0  0  0
  9 10  1  0  0  0  0
 10 15  2  0  0  0  0
 10 11  1  0  0  0  0
 11 12  2  0  0  0  0
 12 13  1  0  0  0  0
 13 14  2  0  0  0  0
 13 16  1  0  0  0  0
 14 15  1  0  0  0  0
 16 17  1  0  0  0  0
 16 19  1  0  0  0  0
 17 18  2  0  0  0  0
 17 20  1  0  0  0  0
 20 21  1  0  0  0  0
 21 22  1  0  0  0  0
 23 24  1  0  0  0  0
 23 31  2  0  0  0  0
 24 25  1  0  0  0  0
 24 26  1  0  0  0  0
 25 28  1  0  0  0  0
 25 27  1  0  0  0  0
 27 29  1  0  0  0  0
 27 30  2  0  0  0  0
 30 31  1  0  0  0  0
M  END
>  <MODEL>
1

>  <REMARK>
 VINA RESULT:    -6.669      0.000      0.000
 INTER + INTRA:          -9.321
 INTER:                  -8.814
 INTRA:                  -0.508
 UNBOUND:                -0.508
  6 active torsions:
  status: ('A' for Active; 'I' for Inactive)
    1  A    between atoms: C_5  and  N_25 
    2  A    between atoms: C_8  and  C_9 
    3  A    between atoms: C_9  and  C_10 
       I    between atoms: C_10  and  N_19 
    4  A    between atoms: C_11  and  N_20 
    5  A    between atoms: C_15  and  C_16 
       I    between atoms: C_15  and  N_25 
    6  A    between atoms: C_16  and  O_28 

>  <COMPND>
    /home/daniil/Downloads/ml_docking_review/databases/Vina/outputs/7UEY_N0R/7UEY_N0R.pdbqt 

>  <AUTHOR>
    GENERATED BY OPEN BABEL 3.2.1

>  <MASTER>
        0    0    0    0    0    0    0    0   31    0   31    0

$$$$
