../../databases/Vina/outputs/8EXL_799/8EXL_7991.pdb
 OpenBabel08242616453D

 40 44  0  0  1  0  0  0  0  0999 V2000
  -17.6960   15.9580   31.2210 C   0  0  0  0  0  0  0  0  0  0  0  0
  -14.2330   16.0720   28.1050 C   0  0  0  0  0  0  0  0  0  0  0  0
  -13.4720   14.7770   27.8470 C   0  0  0  0  0  0  0  0  0  0  0  0
  -14.2360   12.5660   26.9520 C   0  0  0  0  0  0  0  0  0  0  0  0
  -16.2660   14.3850   29.4160 C   0  0  0  0  0  0  0  0  0  0  0  0
  -17.5240   13.9920   29.8670 C   0  0  0  0  0  0  0  0  0  0  0  0
  -16.4550   16.3760   30.7800 C   0  0  0  0  0  0  0  0  0  0  0  0
  -15.7340   15.6150   29.8870 C   0  0  0  0  0  0  0  0  0  0  0  0
  -14.5400   16.0800   29.5010 O   0  0  0  0  0  0  0  0  0  0  0  0
  -14.3980   13.6580   27.7520 N   0  0  0  0  0  0  0  0  0  0  0  0
  -15.3010   11.7430   27.1480 C   0  0  0  0  0  0  0  0  0  0  0  0
  -16.1070   12.3330   28.0610 N   0  0  0  0  0  0  0  0  0  0  0  0
  -16.9840   11.9420   28.4040 H   0  0  0  0  0  0  0  0  0  0  0  0
  -15.5990   13.4810   28.4450 C   0  0  2  0  0  0  0  0  0  0  0  0
  -18.2370   14.7580   30.7660 C   0  0  0  0  0  0  0  0  0  0  0  0
  -18.4320   16.8320   32.1760 C   0  0  0  0  0  0  0  0  0  0  0  0
  -17.9030   17.9700   32.8210 C   0  0  0  0  0  0  0  0  0  0  0  0
  -18.8420   18.4840   33.5680 N   0  0  0  0  0  0  0  0  0  0  0  0
  -19.9970   17.7070   33.4290 N   0  0  0  0  0  0  0  0  0  0  0  0
  -18.7490   19.3130   34.1540 H   0  0  0  0  0  0  0  0  0  0  0  0
  -19.7410   16.7020   32.5570 C   0  0  0  0  0  0  0  0  0  0  0  0
  -21.2730   17.9700   34.1060 C   0  0  0  0  0  0  0  0  0  0  0  0
  -21.7470   16.7080   34.8350 C   0  0  0  0  0  0  0  0  0  0  0  0
  -22.2930   18.3920   33.0460 C   0  0  0  0  0  0  0  0  0  0  0  0
  -21.0870   19.0690   35.1080 C   0  0  0  0  0  0  0  0  0  0  0  0
  -21.7380   20.2480   34.9600 N   0  0  0  0  0  0  0  0  0  0  0  0
  -21.6110   20.9970   35.6420 H   0  0  0  0  0  0  0  0  0  0  0  0
  -22.3500   20.4050   34.1600 H   0  0  0  0  0  0  0  0  0  0  0  0
  -20.3600   18.8830   36.0580 O   0  0  0  0  0  0  0  0  0  0  0  0
  -15.4950   10.4280   26.5030 C   0  0  2  0  0  0  0  0  0  0  0  0
  -16.3370    9.4670   26.9060 N   0  0  0  0  0  0  0  0  0  0  0  0
  -16.1640    8.3920   26.0340 N   0  0  0  0  0  0  0  0  0  0  0  0
  -15.2430    8.7330   25.1790 C   0  0  2  0  0  0  0  0  0  0  0  0
  -16.6660    7.5040   26.0600 H   0  0  0  0  0  0  0  0  0  0  0  0
  -14.7300    7.8580   24.0550 C   0  0  0  0  0  0  0  0  0  0  0  0
  -14.8310    9.9610   25.4640 N   0  0  0  0  0  0  0  0  0  0  0  0
  -14.1090   10.4700   24.9540 H   0  0  0  0  0  0  0  0  0  0  0  0
  -17.2720    9.5080   28.0300 C   0  0  0  0  0  0  0  0  0  0  0  0
  -17.1810    8.1480   28.7220 C   0  0  0  0  0  0  0  0  0  0  0  0
  -18.6730    9.8020   27.4950 C   0  0  0  0  0  0  0  0  0  0  0  0
  1 15  2  0  0  0  0
  1  7  1  0  0  0  0
  1 16  1  0  0  0  0
  2  3  1  0  0  0  0
  2  9  1  0  0  0  0
  3 10  1  0  0  0  0
  4 11  2  0  0  0  0
  4 10  1  0  0  0  0
  5  6  2  0  0  0  0
  5  8  1  0  0  0  0
  6 15  1  0  0  0  0
  7  8  2  0  0  0  0
  8  9  1  0  0  0  0
 10 14  1  0  0  0  0
 11 12  1  0  0  0  0
 12 13  1  0  0  0  0
 12 14  1  0  0  0  0
 14  5  1  6  0  0  0
 16 21  2  0  0  0  0
 16 17  1  0  0  0  0
 17 18  1  0  0  0  0
 18 19  1  0  0  0  0
 18 20  1  0  0  0  0
 19 21  1  0  0  0  0
 19 22  1  0  0  0  0
 22 24  1  0  0  0  0
 22 23  1  0  0  0  0
 22 25  1  0  0  0  0
 25 26  1  0  0  0  0
 25 29  2  0  0  0  0
 26 28  1  0  0  0  0
 26 27  1  0  0  0  0
 30 11  1  1  0  0  0
 30 36  1  0  0  0  0
 30 31  1  0  0  0  0
 31 32  1  0  0  0  0
 31 38  1  0  0  0  0
 32 33  1  0  0  0  0
 32 34  1  0  0  0  0
 33 35  1  1  0  0  0
 33 36  1  0  0  0  0
 36 37  1  0  0  0  0
 38 40  1  0  0  0  0
 38 39  1  0  0  0  0
M  END
>  <MODEL>
1

>  <REMARK>
 VINA RESULT:   -10.652      0.000      0.000
 INTER + INTRA:         -14.610
 INTER:                 -13.766
 INTRA:                  -0.843
 UNBOUND:                -0.843
  5 active torsions:
  status: ('A' for Active; 'I' for Inactive)
       I    between atoms: C_1  and  N_15 
    1  A    between atoms: C_1  and  C_2 
    2  A    between atoms: C_2  and  N_19 
    3  A    between atoms: C_6  and  C_20 
    4  A    between atoms: C_12  and  N_40 
    5  A    between atoms: C_28  and  C_33 

>  <COMPND>
    /home/daniil/Downloads/ml_docking_review/databases/Vina/outputs/8EXL_799/8EXL_799.pdbqt 

>  <AUTHOR>
    GENERATED BY OPEN BABEL 3.2.1

>  <MASTER>
        0    0    0    0    0    0    0    0   40    0   40    0

$$$$
