../../databases/Vina/outputs/7X9K_8OG/7X9K_8OG1.pdb
 OpenBabel08242612043D

 30 32  0  0  1  0  0  0  0  0999 V2000
   -4.6560   -0.3470   27.3550 N   0  0  0  0  0  0  0  0  0  0  0  0
   -3.6650   -0.4500   28.2310 C   0  0  0  0  0  0  0  0  0  0  0  0
   -2.5730    0.2730   27.9320 N   0  0  0  0  0  0  0  0  0  0  0  0
   -1.7030    0.3520   28.4560 H   0  0  0  0  0  0  0  0  0  0  0  0
   -2.9100    0.8760   26.7610 C   0  0  0  0  0  0  0  0  0  0  0  0
   -2.2370    1.7500   25.9220 C   0  0  0  0  0  0  0  0  0  0  0  0
   -1.0750    2.1310   26.2030 O   0  0  0  0  0  0  0  0  0  0  0  0
   -2.8360    2.1820   24.8060 N   0  0  0  0  0  0  0  0  0  0  0  0
   -2.3400    2.8230   24.1880 H   0  0  0  0  0  0  0  0  0  0  0  0
   -4.0790    1.7890   24.4870 C   0  0  2  0  0  0  0  0  0  0  0  0
   -4.7660    0.9440   25.2740 N   0  0  0  0  0  0  0  0  0  0  0  0
   -5.7110    0.6580   25.0160 H   0  0  0  0  0  0  0  0  0  0  0  0
   -4.2000    0.4750   26.4110 C   0  0  0  0  0  0  0  0  0  0  0  0
   -3.7620   -1.1780   29.2820 O   0  0  0  0  0  0  0  0  0  0  0  0
   -5.9720   -1.0170   27.4070 C   0  0  1  0  0  0  0  0  0  0  0  0
   -7.0490   -0.0040   27.7740 C   0  0  0  0  0  0  0  0  0  0  0  0
   -8.2540   -0.5250   27.0240 C   0  0  1  0  0  0  0  0  0  0  0  0
   -7.6690   -1.2100   25.8030 C   0  0  2  0  0  0  0  0  0  0  0  0
   -6.3150   -1.5080   26.1210 O   0  0  0  0  0  0  0  0  0  0  0  0
   -8.8820   -1.4970   27.8650 O   0  0  0  0  0  0  0  0  0  0  0  0
   -9.2120   -2.1840   27.2970 H   0  0  0  0  0  0  0  0  0  0  0  0
   -7.6200   -0.2910   24.5820 C   0  0  0  0  0  0  0  0  0  0  0  0
   -8.6280    0.7150   24.6130 O   0  0  0  0  0  0  0  0  0  0  0  0
   -8.9460    1.5730   23.2870 P   0  0  0  0  0  0  0  0  0  0  0  0
   -9.9880    2.6020   23.6840 O   0  0  0  0  0  0  0  0  0  0  0  0
   -7.6040    2.1510   22.9230 O   0  0  0  0  0  0  0  0  0  0  0  0
   -9.4850    0.5640   22.3130 O   0  0  0  0  0  0  0  0  0  0  0  0
   -4.6590    2.2390   23.3510 N   0  0  0  0  0  0  0  0  0  0  0  0
   -4.6530    3.2410   23.1600 H   0  0  0  0  0  0  0  0  0  0  0  0
   -5.0960    1.5800   22.7070 H   0  0  0  0  0  0  0  0  0  0  0  0
  1 13  1  0  0  0  0
  1  2  1  0  0  0  0
  2  3  1  0  0  0  0
  2 14  2  0  0  0  0
  3  5  1  0  0  0  0
  3  4  1  0  0  0  0
  5  6  1  0  0  0  0
  5 13  2  0  0  0  0
  6  8  1  0  0  0  0
  6  7  2  0  0  0  0
  8  9  1  0  0  0  0
  8 10  1  0  0  0  0
 10 28  1  6  0  0  0
 10 11  1  0  0  0  0
 11 12  1  0  0  0  0
 11 13  1  0  0  0  0
 15  1  1  6  0  0  0
 15 19  1  0  0  0  0
 15 16  1  0  0  0  0
 16 17  1  0  0  0  0
 17 18  1  0  0  0  0
 17 20  1  1  0  0  0
 18 22  1  6  0  0  0
 18 19  1  0  0  0  0
 20 21  1  0  0  0  0
 22 23  1  0  0  0  0
 23 24  1  0  0  0  0
 24 27  2  0  0  0  0
 24 26  1  0  0  0  0
 24 25  1  0  0  0  0
 28 30  1  0  0  0  0
 28 29  1  0  0  0  0
M  END
>  <MODEL>
1

>  <REMARK>
 VINA RESULT:    -9.810      0.000      0.000
 INTER + INTRA:         -13.765
 INTER:                 -12.677
 INTRA:                  -1.088
 UNBOUND:                -1.088
  6 active torsions:
  status: ('A' for Active; 'I' for Inactive)
    1  A    between atoms: P_2  and  O_5 
    2  A    between atoms: O_5  and  C_6 
    3  A    between atoms: C_6  and  C_7 
    4  A    between atoms: C_9  and  O_10 
    5  A    between atoms: C_13  and  N_14 
    6  A    between atoms: C_23  and  N_24 

>  <COMPND>
    /home/daniil/Downloads/ml_docking_review/databases/Vina/outputs/7X9K_8OG/7X9K_8OG.pdbqt 

>  <AUTHOR>
    GENERATED BY OPEN BABEL 3.2.1

>  <MASTER>
        0    0    0    0    0    0    0    0   30    0   30    0

$$$$
