../../databases/Vina/outputs/7DQL_4CL/7DQL_4CL1.pdb
 OpenBabel08242616453D

 11 11  0  0  0  0  0  0  0  0999 V2000
   -2.6040   -4.8630    6.1910 Cl  0  0  0  0  0  0  0  0  0  0  0  0
   -2.4800   -6.5540    6.5850 C   0  0  0  0  0  0  0  0  0  0  0  0
   -1.5240   -6.9680    7.4900 C   0  0  0  0  0  0  0  0  0  0  0  0
   -1.4380   -8.3100    7.8110 C   0  0  0  0  0  0  0  0  0  0  0  0
   -2.3110   -9.2300    7.2380 C   0  0  0  0  0  0  0  0  0  0  0  0
   -3.2730   -8.7900    6.3210 C   0  0  0  0  0  0  0  0  0  0  0  0
   -3.3510   -7.4460    5.9880 C   0  0  0  0  0  0  0  0  0  0  0  0
   -2.2490  -10.5510    7.5530 O   0  0  0  0  0  0  0  0  0  0  0  0
   -1.4340  -10.9520    7.8320 H   0  0  0  0  0  0  0  0  0  0  0  0
   -4.1340   -9.6940    5.7840 O   0  0  0  0  0  0  0  0  0  0  0  0
   -4.6670   -9.4370    5.0410 H   0  0  0  0  0  0  0  0  0  0  0  0
  1  2  1  0  0  0  0
  2  7  2  0  0  0  0
  2  3  1  0  0  0  0
  3  4  2  0  0  0  0
  4  5  1  0  0  0  0
  5  6  2  0  0  0  0
  5  8  1  0  0  0  0
  6 10  1  0  0  0  0
  6  7  1  0  0  0  0
  8  9  1  0  0  0  0
 10 11  1  0  0  0  0
M  END
>  <MODEL>
1

>  <REMARK>
 VINA RESULT:    -5.398      0.000      0.000
 INTER + INTRA:          -5.713
 INTER:                  -5.713
 INTRA:                   0.000
 UNBOUND:                 0.000
  2 active torsions:
  status: ('A' for Active; 'I' for Inactive)
    1  A    between atoms: C_5  and  O_6 
    2  A    between atoms: C_8  and  O_10 

>  <COMPND>
    /home/daniil/Downloads/ml_docking_review/databases/Vina/outputs/7DQL_4CL/7DQL_4CL.pdbqt 

>  <AUTHOR>
    GENERATED BY OPEN BABEL 3.2.1

>  <MASTER>
        0    0    0    0    0    0    0    0   11    0   11    0

$$$$
