../../databases/Vina/outputs/7P4C_5OV/7P4C_5OV1.pdb
 OpenBabel08242616453D

 21 22  0  0  1  0  0  0  0  0999 V2000
   83.9880   13.9700   34.4180 C   0  0  1  0  0  0  0  0  0  0  0  0
   83.8270   13.2160   35.7480 C   0  0  2  0  0  0  0  0  0  0  0  0
   83.8370   14.1260   36.9650 C   0  0  1  0  0  0  0  0  0  0  0  0
   82.9850   15.4020   36.8350 C   0  0  2  0  0  0  0  0  0  0  0  0
   83.3400   16.1410   35.5760 C   0  0  1  0  0  0  0  0  0  0  0  0
   83.1260   15.2300   34.3560 C   0  0  1  0  0  0  0  0  0  0  0  0
   85.4230   14.2130   34.3920 N   0  0  0  0  0  0  0  0  0  0  0  0
   85.8790   15.0400   34.0050 H   0  0  0  0  0  0  0  0  0  0  0  0
   86.5620   12.0790   34.0060 O   0  0  0  0  0  0  0  0  0  0  0  0
   86.1810   12.9490   35.0810 S   0  0  0  0  0  0  0  0  0  0  0  0
   87.1510   13.3350   36.0420 O   0  0  0  0  0  0  0  0  0  0  0  0
   84.9560   12.3220   35.8550 O   0  0  0  0  0  0  0  0  0  0  0  0
   83.4900   13.2910   38.1870 C   0  0  0  0  0  0  0  0  0  0  0  0
   82.4150   12.4000   37.8950 O   0  0  0  0  0  0  0  0  0  0  0  0
   82.6650   11.7890   37.2120 H   0  0  0  0  0  0  0  0  0  0  0  0
   83.1590   16.2660   37.9640 O   0  0  0  0  0  0  0  0  0  0  0  0
   82.4450   16.1360   38.5780 H   0  0  0  0  0  0  0  0  0  0  0  0
   82.5160   17.3170   35.4390 O   0  0  0  0  0  0  0  0  0  0  0  0
   82.2260   17.3900   34.5360 H   0  0  0  0  0  0  0  0  0  0  0  0
   83.4010   15.9520   33.1590 O   0  0  0  0  0  0  0  0  0  0  0  0
   83.0550   16.8350   33.2240 H   0  0  0  0  0  0  0  0  0  0  0  0
  1  6  1  0  0  0  0
  1  7  1  1  0  0  0
  1  2  1  0  0  0  0
  2 12  1  1  0  0  0
  2  3  1  0  0  0  0
  3  4  1  0  0  0  0
  3 13  1  1  0  0  0
  4  5  1  0  0  0  0
  4 16  1  1  0  0  0
  5  6  1  0  0  0  0
  5 18  1  6  0  0  0
  6 20  1  6  0  0  0
  7  8  1  0  0  0  0
  7 10  1  0  0  0  0
  9 10  1  0  0  0  0
 10 12  1  0  0  0  0
 10 11  1  0  0  0  0
 13 14  1  0  0  0  0
 14 15  1  0  0  0  0
 16 17  1  0  0  0  0
 18 19  1  0  0  0  0
 20 21  1  0  0  0  0
M  END
>  <MODEL>
1

>  <REMARK>
 VINA RESULT:    -7.196      0.000      0.000
 INTER + INTRA:          -8.644
 INTER:                  -8.458
 INTRA:                  -0.186
 UNBOUND:                -0.186
  5 active torsions:
  status: ('A' for Active; 'I' for Inactive)
    1  A    between atoms: C_3  and  C_4 
    2  A    between atoms: C_4  and  O_14 
    3  A    between atoms: C_5  and  O_16 
    4  A    between atoms: C_6  and  O_18 
    5  A    between atoms: C_7  and  O_20 

>  <COMPND>
    /home/daniil/Downloads/ml_docking_review/databases/Vina/outputs/7P4C_5OV/7P4C_5OV.pdbqt 

>  <AUTHOR>
    GENERATED BY OPEN BABEL 3.2.1

>  <MASTER>
        0    0    0    0    0    0    0    0   21    0   21    0

$$$$
