../../databases/Vina/outputs/8AEM_LVF/8AEM_LVF1.pdb
 OpenBabel08242616453D

 14 15  0  0  0  0  0  0  0  0999 V2000
 -108.7030 -174.6470  309.7730 C   0  0  0  0  0  0  0  0  0  0  0  0
 -107.8250 -175.0820  308.6980 C   0  0  0  0  0  0  0  0  0  0  0  0
 -107.0830 -175.3880  307.9470 N   0  0  0  0  0  0  0  0  0  0  0  0
 -109.0930 -175.7270  310.6280 C   0  0  0  0  0  0  0  0  0  0  0  0
 -108.2980 -176.3260  311.6510 C   0  0  0  0  0  0  0  0  0  0  0  0
 -109.0020 -177.4410  312.1190 C   0  0  0  0  0  0  0  0  0  0  0  0
 -107.0610 -176.0420  312.1970 C   0  0  0  0  0  0  0  0  0  0  0  0
 -108.4850 -178.2630  313.1060 C   0  0  0  0  0  0  0  0  0  0  0  0
 -110.1790 -177.5040  311.4210 N   0  0  0  0  0  0  0  0  0  0  0  0
 -107.2400 -177.9710  313.6300 C   0  0  0  0  0  0  0  0  0  0  0  0
 -106.5580 -176.8660  313.1800 C   0  0  0  0  0  0  0  0  0  0  0  0
 -105.0340 -176.4650  313.9160 Cl  0  0  0  0  0  0  0  0  0  0  0  0
 -110.2270 -176.4680  310.5470 C   0  0  0  0  0  0  0  0  0  0  0  0
 -110.9020 -178.2140  311.5390 H   0  0  0  0  0  0  0  0  0  0  0  0
  1  2  1  0  0  0  0
  1  4  1  0  0  0  0
  2  3  3  0  0  0  0
  4 13  2  0  0  0  0
  4  5  1  0  0  0  0
  5  6  2  0  0  0  0
  5  7  1  0  0  0  0
  6  9  1  0  0  0  0
  6  8  1  0  0  0  0
  7 11  2  0  0  0  0
  8 10  2  0  0  0  0
  9 13  1  0  0  0  0
  9 14  1  0  0  0  0
 10 11  1  0  0  0  0
 11 12  1  0  0  0  0
M  END
>  <MODEL>
1

>  <REMARK>
 VINA RESULT:    -7.700      0.000      0.000
 INTER + INTRA:          -8.286
 INTER:                  -8.150
 INTRA:                  -0.136
 UNBOUND:                -0.136
  1 active torsions:
  status: ('A' for Active; 'I' for Inactive)
    1  A    between atoms: C_2  and  C_3 

>  <COMPND>
    /home/daniil/Downloads/ml_docking_review/databases/Vina/outputs/8AEM_LVF/8AEM_LVF.pdbqt 

>  <AUTHOR>
    GENERATED BY OPEN BABEL 3.2.1

>  <MASTER>
        0    0    0    0    0    0    0    0   14    0   14    0

$$$$
