../../databases/Vina/outputs/8G0V_YHT/8G0V_YHT1.pdb
 OpenBabel08242612033D

 33 35  0  0  1  0  0  0  0  0999 V2000
  -17.6210   15.0160  -26.8230 C   0  0  0  0  0  0  0  0  0  0  0  0
  -18.5080   14.8470  -26.0620 C   0  0  0  0  0  0  0  0  0  0  0  0
  -16.5560   15.2450  -27.8020 C   0  0  0  0  0  0  0  0  0  0  0  0
  -15.9310   16.5100  -27.6420 O   0  0  0  0  0  0  0  0  0  0  0  0
  -14.6930   17.0460  -28.5090 P   0  0  2  0  0  0  0  0  0  0  0  0
  -13.5650   16.1220  -28.2460 O   0  0  0  0  0  0  0  0  0  0  0  0
  -14.5870   18.4850  -28.1600 O   0  0  0  0  0  0  0  0  0  0  0  0
  -15.1200   16.8540  -30.0430 O   0  0  0  0  0  0  0  0  0  0  0  0
  -14.9650   17.9900  -30.9180 C   0  0  0  0  0  0  0  0  0  0  0  0
  -13.9280   17.6990  -31.9770 C   0  0  2  0  0  0  0  0  0  0  0  0
  -12.4930   17.5580  -31.4610 C   0  0  2  0  0  0  0  0  0  0  0  0
  -11.6880   17.8700  -32.7250 C   0  0  2  0  0  0  0  0  0  0  0  0
  -12.5220   19.0030  -33.3130 C   0  0  1  0  0  0  0  0  0  0  0  0
  -13.8770   18.7870  -32.9310 O   0  0  0  0  0  0  0  0  0  0  0  0
  -12.2050   16.2620  -30.9510 O   0  0  0  0  0  0  0  0  0  0  0  0
  -11.9190   15.6670  -31.6340 H   0  0  0  0  0  0  0  0  0  0  0  0
  -11.7470   16.7740  -33.6080 O   0  0  0  0  0  0  0  0  0  0  0  0
  -11.2290   16.9590  -34.3820 H   0  0  0  0  0  0  0  0  0  0  0  0
  -12.1590   20.3610  -32.9150 N   0  0  2  0  0  0  0  0  0  0  0  0
  -12.2710   20.9170  -31.6660 C   0  0  0  0  0  0  0  0  0  0  0  0
  -11.9020   22.1750  -31.6160 N   0  0  0  0  0  0  0  0  0  0  0  0
  -11.5190   22.4620  -32.9230 C   0  0  0  0  0  0  0  0  0  0  0  0
  -11.8960   22.7980  -30.8090 H   0  0  0  0  0  0  0  0  0  0  0  0
  -11.6730   21.3530  -33.7340 C   0  0  2  0  0  0  0  0  0  0  0  0
  -11.0370   23.6370  -33.5300 C   0  0  0  0  0  0  0  0  0  0  0  0
  -11.4040   21.2790  -35.0500 N   0  0  0  0  0  0  0  0  0  0  0  0
  -10.9470   22.4390  -35.5110 C   0  0  0  0  0  0  0  0  0  0  0  0
  -11.5330   20.4430  -35.6190 H   0  0  0  0  0  0  0  0  0  0  0  0
  -10.7480   23.5870  -34.8530 N   0  0  0  0  0  0  0  0  0  0  0  0
  -10.3860   24.4080  -35.3380 H   0  0  0  0  0  0  0  0  0  0  0  0
  -10.8440   24.7810  -32.8760 N   0  0  0  0  0  0  0  0  0  0  0  0
  -11.5510   25.0880  -32.2070 H   0  0  0  0  0  0  0  0  0  0  0  0
  -10.0290   25.3790  -33.0090 H   0  0  0  0  0  0  0  0  0  0  0  0
  1  3  1  0  0  0  0
  1  2  3  0  0  0  0
  3  4  1  0  0  0  0
  4  5  1  0  0  0  0
  5  8  1  0  0  0  0
  5  6  2  1  0  0  0
  5  7  1  0  0  0  0
  8  9  1  0  0  0  0
 10  9  1  1  0  0  0
 10 14  1  0  0  0  0
 10 11  1  0  0  0  0
 11 12  1  0  0  0  0
 11 15  1  6  0  0  0
 12 17  1  6  0  0  0
 12 13  1  0  0  0  0
 13 14  1  1  0  0  0
 13 19  1  0  0  0  0
 15 16  1  0  0  0  0
 17 18  1  0  0  0  0
 19 24  1  0  0  0  0
 19 20  1  6  0  0  0
 20 21  1  0  0  0  0
 21 22  1  0  0  0  0
 21 23  1  0  0  0  0
 22 25  2  0  0  0  0
 24 22  1  6  0  0  0
 24 26  1  0  0  0  0
 25 29  1  0  0  0  0
 25 31  1  0  0  0  0
 26 28  1  0  0  0  0
 26 27  1  0  0  0  0
 27 29  1  0  0  0  0
 29 30  1  0  0  0  0
 31 33  1  0  0  0  0
 31 32  1  0  0  0  0
M  END
>  <MODEL>
1

>  <REMARK>
 VINA RESULT:    -9.205      0.000      0.000
 INTER + INTRA:         -14.095
 INTER:                 -13.241
 INTRA:                  -0.854
 UNBOUND:                -0.854
  9 active torsions:
  status: ('A' for Active; 'I' for Inactive)
    1  A    between atoms: C_1  and  O_24 
    2  A    between atoms: C_2  and  O_27 
    3  A    between atoms: C_3  and  N_14 
    4  A    between atoms: C_9  and  O_29 
    5  A    between atoms: C_9  and  C_13 
    6  A    between atoms: C_10  and  O_31 
    7  A    between atoms: C_12  and  N_21 
    8  A    between atoms: O_29  and  P_33 
    9  A    between atoms: O_31  and  P_33 

>  <COMPND>
    /home/daniil/Downloads/ml_docking_review/databases/Vina/outputs/8G0V_YHT/8G0V_YHT.pdbqt 

>  <AUTHOR>
    GENERATED BY OPEN BABEL 3.2.1

>  <MASTER>
        0    0    0    0    0    0    0    0   33    0   33    0

$$$$
