../../databases/Vina/outputs/7P2I_MFU/7P2I_MFU1.pdb
 OpenBabel08242612033D

 15 15  0  0  1  0  0  0  0  0999 V2000
    1.1700   15.6290   42.9970 C   0  0  1  0  0  0  0  0  0  0  0  0
    0.8870   17.1280   42.9510 C   0  0  2  0  0  0  0  0  0  0  0  0
    0.5220   17.6080   44.3520 C   0  0  1  0  0  0  0  0  0  0  0  0
    1.6120   17.2330   45.3610 C   0  0  1  0  0  0  0  0  0  0  0  0
    1.8140   15.7200   45.3190 C   0  0  2  0  0  0  0  0  0  0  0  0
    2.9120   15.2200   46.2330 C   0  0  0  0  0  0  0  0  0  0  0  0
    2.1640   15.3390   43.9720 O   0  0  0  0  0  0  0  0  0  0  0  0
   -0.0320   14.9760   43.2890 O   0  0  0  0  0  0  0  0  0  0  0  0
   -0.2610   13.8120   42.4810 C   0  0  0  0  0  0  0  0  0  0  0  0
   -0.1830   17.3820   42.0420 O   0  0  0  0  0  0  0  0  0  0  0  0
   -0.0970   16.8390   41.2670 H   0  0  0  0  0  0  0  0  0  0  0  0
    0.2770   19.0130   44.3360 O   0  0  0  0  0  0  0  0  0  0  0  0
   -0.4030   19.2310   44.9630 H   0  0  0  0  0  0  0  0  0  0  0  0
    2.8460   17.8690   45.0160 O   0  0  0  0  0  0  0  0  0  0  0  0
    2.9060   18.7180   45.4370 H   0  0  0  0  0  0  0  0  0  0  0  0
  1  2  1  0  0  0  0
  1  8  1  1  0  0  0
  1  7  1  0  0  0  0
  2 10  1  6  0  0  0
  2  3  1  0  0  0  0
  3 12  1  6  0  0  0
  3  4  1  0  0  0  0
  4 14  1  6  0  0  0
  4  5  1  0  0  0  0
  5  7  1  0  0  0  0
  5  6  1  1  0  0  0
  8  9  1  0  0  0  0
 10 11  1  0  0  0  0
 12 13  1  0  0  0  0
 14 15  1  0  0  0  0
M  END
>  <MODEL>
1

>  <REMARK>
 VINA RESULT:    -6.145      0.000      0.000
 INTER + INTRA:          -7.137
 INTER:                  -7.043
 INTRA:                  -0.094
 UNBOUND:                -0.094
  4 active torsions:
  status: ('A' for Active; 'I' for Inactive)
    1  A    between atoms: C_1  and  O_7 
    2  A    between atoms: C_2  and  O_8 
    3  A    between atoms: C_3  and  O_10 
    4  A    between atoms: C_4  and  O_12 

>  <COMPND>
    /home/daniil/Downloads/ml_docking_review/databases/Vina/outputs/7P2I_MFU/7P2I_MFU.pdbqt 

>  <AUTHOR>
    GENERATED BY OPEN BABEL 3.2.1

>  <MASTER>
        0    0    0    0    0    0    0    0   15    0   15    0

$$$$
