../../databases/Vina/outputs/7XIJ_EJ3/7XIJ_EJ31.pdb
 OpenBabel08242616453D

 35 38  0  0  0  0  0  0  0  0999 V2000
   34.2250  -13.1900    1.0270 C   0  0  0  0  0  0  0  0  0  0  0  0
   33.7110  -12.1010    1.3250 O   0  0  0  0  0  0  0  0  0  0  0  0
   33.8170  -13.9330   -0.0650 N   0  0  0  0  0  0  0  0  0  0  0  0
   34.2880  -14.8220   -0.2250 H   0  0  0  0  0  0  0  0  0  0  0  0
   32.8220  -13.5730   -0.9620 C   0  0  0  0  0  0  0  0  0  0  0  0
   33.1230  -12.6020   -1.9140 C   0  0  0  0  0  0  0  0  0  0  0  0
   32.2090  -12.1920   -2.8900 C   0  0  0  0  0  0  0  0  0  0  0  0
   30.9440  -12.8100   -2.9060 C   0  0  0  0  0  0  0  0  0  0  0  0
   30.5870  -13.8110   -1.9770 C   0  0  0  0  0  0  0  0  0  0  0  0
   31.5560  -14.1910   -0.9880 C   0  0  0  0  0  0  0  0  0  0  0  0
   31.2860  -15.1180   -0.1060 F   0  0  0  0  0  0  0  0  0  0  0  0
   32.5730  -11.1840   -3.8130 C   0  0  0  0  0  0  0  0  0  0  0  0
   32.4440  -11.3600   -5.0470 O   0  0  0  0  0  0  0  0  0  0  0  0
   33.0420  -10.0780   -3.4260 O   0  0  0  0  0  0  0  0  0  0  0  0
   29.3490  -14.3770   -2.0520 C   0  0  0  0  0  0  0  0  0  0  0  0
   28.9490  -15.4430   -1.3360 C   0  0  0  0  0  0  0  0  0  0  0  0
   27.6790  -15.7390   -1.6660 N   0  0  0  0  0  0  0  0  0  0  0  0
   27.2930  -14.8470   -2.5790 N   0  0  0  0  0  0  0  0  0  0  0  0
   27.1180  -16.5020   -1.2890 H   0  0  0  0  0  0  0  0  0  0  0  0
   28.3160  -14.0140   -2.8260 C   0  0  0  0  0  0  0  0  0  0  0  0
   25.9280  -14.8640   -3.1780 C   0  0  0  0  0  0  0  0  0  0  0  0
   35.3060  -13.6850    1.7590 C   0  0  0  0  0  0  0  0  0  0  0  0
   36.5840  -13.6630    1.3550 C   0  0  0  0  0  0  0  0  0  0  0  0
   37.3810  -14.2040    2.3190 N   0  0  0  0  0  0  0  0  0  0  0  0
   38.7280  -14.4060    2.2620 C   0  0  0  0  0  0  0  0  0  0  0  0
   36.5720  -14.5880    3.3240 C   0  0  0  0  0  0  0  0  0  0  0  0
   39.4680  -14.0250    0.9610 C   0  0  0  0  0  0  0  0  0  0  0  0
   39.3490  -15.0340    3.1270 O   0  0  0  0  0  0  0  0  0  0  0  0
   35.2860  -14.2570    3.0110 C   0  0  0  0  0  0  0  0  0  0  0  0
   36.8620  -15.1700    4.5210 C   0  0  0  0  0  0  0  0  0  0  0  0
   34.3000  -14.5440    3.9070 C   0  0  0  0  0  0  0  0  0  0  0  0
   34.5740  -15.1510    5.1640 C   0  0  0  0  0  0  0  0  0  0  0  0
   35.8850  -15.4560    5.4550 C   0  0  0  0  0  0  0  0  0  0  0  0
   33.6820  -15.5100    6.1460 O   0  0  0  0  0  0  0  0  0  0  0  0
   34.1790  -15.7550    7.4460 C   0  0  0  0  0  0  0  0  0  0  0  0
  1  3  1  0  0  0  0
  1  2  2  0  0  0  0
  1 22  1  0  0  0  0
  3  5  1  0  0  0  0
  3  4  1  0  0  0  0
  5  6  2  0  0  0  0
  5 10  1  0  0  0  0
  6  7  1  0  0  0  0
  7 12  1  0  0  0  0
  7  8  2  0  0  0  0
  8  9  1  0  0  0  0
  9 15  1  0  0  0  0
  9 10  2  0  0  0  0
 10 11  1  0  0  0  0
 12 13  2  0  0  0  0
 12 14  1  0  0  0  0
 15 20  2  0  0  0  0
 15 16  1  0  0  0  0
 16 17  1  0  0  0  0
 17 18  1  0  0  0  0
 17 19  1  0  0  0  0
 18 21  1  0  0  0  0
 18 20  1  0  0  0  0
 22 23  2  0  0  0  0
 22 29  1  0  0  0  0
 23 24  1  0  0  0  0
 24 25  1  0  0  0  0
 24 26  1  0  0  0  0
 25 27  1  0  0  0  0
 25 28  2  0  0  0  0
 26 29  2  0  0  0  0
 26 30  1  0  0  0  0
 29 31  1  0  0  0  0
 30 33  2  0  0  0  0
 31 32  2  0  0  0  0
 32 33  1  0  0  0  0
 32 34  1  0  0  0  0
 34 35  1  0  0  0  0
M  END
>  <MODEL>
1

>  <REMARK>
 VINA RESULT:    -9.260      0.000      0.000
 INTER + INTRA:         -12.467
 INTER:                 -11.967
 INTRA:                  -0.499
 UNBOUND:                -0.499
  5 active torsions:
  status: ('A' for Active; 'I' for Inactive)
       I    between atoms: C_2  and  N_4 
    1  A    between atoms: C_9  and  O_10 
    2  A    between atoms: C_14  and  C_15 
       I    between atoms: C_15  and  N_17 
    3  A    between atoms: N_17  and  C_19 
    4  A    between atoms: C_23  and  C_24 
    5  A    between atoms: C_28  and  C_29 

>  <COMPND>
    /home/daniil/Downloads/ml_docking_review/databases/Vina/outputs/7XIJ_EJ3/7XIJ_EJ3.pdbqt 

>  <AUTHOR>
    GENERATED BY OPEN BABEL 3.2.1

>  <MASTER>
        0    0    0    0    0    0    0    0   35    0   35    0

$$$$
