../../databases/Vina/outputs/7C3U_AZG/7C3U_AZG1.pdb
 OpenBabel08242612033D

 18 19  0  0  1  0  0  0  0  0999 V2000
   33.6110   37.6020   27.1660 C   0  0  1  0  0  0  0  0  0  0  0  0
   33.3260   36.2610   26.9450 N   0  0  0  0  0  0  0  0  0  0  0  0
   34.0550   35.5530   27.0310 H   0  0  0  0  0  0  0  0  0  0  0  0
   32.1000   35.9250   26.6240 C   0  0  1  0  0  0  0  0  0  0  0  0
   31.0840   36.8230   26.4890 N   0  0  0  0  0  0  0  0  0  0  0  0
   30.1630   36.4920   26.2030 H   0  0  0  0  0  0  0  0  0  0  0  0
   31.2630   38.1170   26.7210 C   0  0  0  0  0  0  0  0  0  0  0  0
   32.5700   38.6050   27.0930 C   0  0  0  0  0  0  0  0  0  0  0  0
   33.1420   39.7500   27.3440 N   0  0  0  0  0  0  0  0  0  0  0  0
   32.6630   40.6490   27.3120 H   0  0  0  0  0  0  0  0  0  0  0  0
   34.4640   39.5950   27.6570 N   0  0  0  0  0  0  0  0  0  0  0  0
   34.7400   38.2040   27.5380 N   0  0  0  0  0  0  0  0  0  0  0  0
   35.6380   37.7510   27.7060 H   0  0  0  0  0  0  0  0  0  0  0  0
   31.8450   34.6180   26.3700 N   0  0  0  0  0  0  0  0  0  0  0  0
   32.4660   33.9200   26.7770 H   0  0  0  0  0  0  0  0  0  0  0  0
   31.0640   34.3870   25.7550 H   0  0  0  0  0  0  0  0  0  0  0  0
   30.2290   38.9440   26.6090 O   0  0  0  0  0  0  0  0  0  0  0  0
   29.6300   39.0800   27.3340 H   0  0  0  0  0  0  0  0  0  0  0  0
  1  2  1  0  0  0  0
  1  8  1  1  0  0  0
  1 12  1  0  0  0  0
  2  4  1  0  0  0  0
  2  3  1  0  0  0  0
  4 14  1  6  0  0  0
  4  5  1  0  0  0  0
  5  6  1  0  0  0  0
  5  7  1  0  0  0  0
  7 17  1  0  0  0  0
  7  8  2  0  0  0  0
  8  9  1  0  0  0  0
  9 10  1  0  0  0  0
  9 11  1  0  0  0  0
 11 12  1  0  0  0  0
 12 13  1  0  0  0  0
 14 16  1  0  0  0  0
 14 15  1  0  0  0  0
 17 18  1  0  0  0  0
M  END
>  <MODEL>
1

>  <REMARK>
 VINA RESULT:    -7.244      0.000      0.000
 INTER + INTRA:          -7.667
 INTER:                  -7.667
 INTRA:                   0.000
 UNBOUND:                 0.000
  2 active torsions:
  status: ('A' for Active; 'I' for Inactive)
    1  A    between atoms: C_4  and  N_5 
    2  A    between atoms: C_10  and  O_11 

>  <COMPND>
    /home/daniil/Downloads/ml_docking_review/databases/Vina/outputs/7C3U_AZG/7C3U_AZG.pdbqt 

>  <AUTHOR>
    GENERATED BY OPEN BABEL 3.2.1

>  <MASTER>
        0    0    0    0    0    0    0    0   18    0   18    0

$$$$
