../../databases/Vina/outputs/7MEU_MGP/7MEU_MGP1.pdb
 OpenBabel08242612033D

 38 40  0  0  1  0  0  0  0  0999 V2000
  -12.3110   16.3950   48.8400 C   0  0  1  0  0  0  0  0  0  0  0  0
  -12.3940   14.8860   49.2360 O   0  0  0  0  0  0  0  0  0  0  0  0
  -13.0160   16.5270   47.7350 C   0  0  2  0  0  0  0  0  0  0  0  0
  -12.9500   15.0550   47.0040 C   0  0  2  0  0  0  0  0  0  0  0  0
  -12.7750   14.1410   47.9120 C   0  0  2  0  0  0  0  0  0  0  0  0
  -13.9750   13.3890   48.0970 N   0  0  0  0  0  0  0  0  0  0  0  0
  -14.7210   12.8100   47.1250 C   0  0  0  0  0  0  0  0  0  0  0  0
  -15.7880   12.1910   47.6900 N   0  0  0  0  0  0  0  0  0  0  0  0
  -16.7930   11.4870   46.9680 C   0  0  0  0  0  0  0  0  0  0  0  0
  -15.7490   12.3780   49.0610 C   0  0  0  0  0  0  0  0  0  0  0  0
  -16.5140   12.0350   50.2040 C   0  0  2  0  0  0  0  0  0  0  0  0
  -14.5630   13.1470   49.3050 C   0  0  0  0  0  0  0  0  0  0  0  0
  -16.0870   12.4120   51.4500 N   0  0  0  0  0  0  0  0  0  0  0  0
  -14.9660   13.1360   51.6080 C   0  0  2  0  0  0  0  0  0  0  0  0
  -16.6290   12.1410   52.2700 H   0  0  0  0  0  0  0  0  0  0  0  0
  -14.5530   13.5560   52.9190 N   0  0  0  0  0  0  0  0  0  0  0  0
  -14.2440   13.5020   50.5750 N   0  0  0  0  0  0  0  0  0  0  0  0
  -13.4130   14.0730   50.7330 H   0  0  0  0  0  0  0  0  0  0  0  0
  -17.7180   11.2550   50.1150 O   0  0  0  0  0  0  0  0  0  0  0  0
  -17.8560   10.4760   50.6410 H   0  0  0  0  0  0  0  0  0  0  0  0
  -11.7710   15.1500   46.1570 O   0  0  0  0  0  0  0  0  0  0  0  0
  -11.1590   14.4560   46.3730 H   0  0  0  0  0  0  0  0  0  0  0  0
  -12.4210   17.4540   46.8020 O   0  0  0  0  0  0  0  0  0  0  0  0
  -11.7050   17.0700   46.3090 H   0  0  0  0  0  0  0  0  0  0  0  0
  -12.9870   17.2120   49.9340 C   0  0  0  0  0  0  0  0  0  0  0  0
  -11.9390   17.6790   50.8100 O   0  0  0  0  0  0  0  0  0  0  0  0
  -12.0300   17.0820   52.2910 P   0  0  1  0  0  0  0  0  0  0  0  0
  -11.2030   17.9540   53.1800 O   0  0  0  0  0  0  0  0  0  0  0  0
  -13.4830   16.9740   52.6920 O   0  0  0  0  0  0  0  0  0  0  0  0
  -11.2730   15.7020   52.1790 O   0  0  0  0  0  0  0  0  0  0  0  0
   -9.7230   15.4970   51.9060 P   0  0  2  0  0  0  0  0  0  0  0  0
   -8.9170   15.6660   53.2230 O   0  0  0  0  0  0  0  0  0  0  0  0
   -9.2990   16.5710   50.9400 O   0  0  0  0  0  0  0  0  0  0  0  0
   -9.5690   14.0660   51.2210 O   0  0  0  0  0  0  0  0  0  0  0  0
  -10.2630   12.7300   51.6800 P   0  0  0  0  0  0  0  0  0  0  0  0
   -9.4750   11.4740   51.3740 O   0  0  0  0  0  0  0  0  0  0  0  0
  -11.5890   12.6590   50.9660 O   0  0  0  0  0  0  0  0  0  0  0  0
  -10.5000   12.7460   53.2030 O   0  0  0  0  0  0  0  0  0  0  0  0
  1  3  1  0  0  0  0
  1  2  1  0  0  0  0
  1 25  1  1  0  0  0
  2  5  1  0  0  0  0
  3 23  1  6  0  0  0
  3  4  1  0  0  0  0
  4 21  1  6  0  0  0
  4  5  1  0  0  0  0
  5  6  1  1  0  0  0
  6  7  1  0  0  0  0
  6 12  1  0  0  0  0
  7  8  1  0  0  0  0
  8  9  1  0  0  0  0
  8 10  1  0  0  0  0
 10 12  2  0  0  0  0
 10 11  1  0  0  0  0
 11 19  1  1  0  0  0
 11 13  1  0  0  0  0
 12 17  1  0  0  0  0
 13 14  1  0  0  0  0
 13 15  1  0  0  0  0
 14 17  1  0  0  0  0
 14 16  1  6  0  0  0
 17 18  1  0  0  0  0
 19 20  1  0  0  0  0
 21 22  1  0  0  0  0
 23 24  1  0  0  0  0
 25 26  1  0  0  0  0
 26 27  1  0  0  0  0
 27 30  1  0  0  0  0
 27 29  2  1  0  0  0
 27 28  1  0  0  0  0
 30 31  1  0  0  0  0
 31 33  2  6  0  0  0
 31 34  1  0  0  0  0
 31 32  1  0  0  0  0
 34 35  1  0  0  0  0
 35 37  2  0  0  0  0
 35 36  1  0  0  0  0
 35 38  1  0  0  0  0
M  END
>  <MODEL>
1

>  <REMARK>
 VINA RESULT:    -8.102      0.000      0.000
 INTER + INTRA:         -14.484
 INTER:                 -12.602
 INTRA:                  -1.882
 UNBOUND:                -1.882
  11 active torsions:
  status: ('A' for Active; 'I' for Inactive)
    1  A    between atoms: P_1  and  O_4 
    2  A    between atoms: P_1  and  O_5 
    3  A    between atoms: O_4  and  P_6 
    4  A    between atoms: O_5  and  C_14 
    5  A    between atoms: P_6  and  O_9 
    6  A    between atoms: O_9  and  P_10 
    7  A    between atoms: C_14  and  C_15 
    8  A    between atoms: C_17  and  O_18 
    9  A    between atoms: C_20  and  O_21 
   10  A    between atoms: C_23  and  N_24 
   11  A    between atoms: C_29  and  O_30 

>  <COMPND>
    /home/daniil/Downloads/ml_docking_review/databases/Vina/outputs/7MEU_MGP/7MEU_MGP.pdbqt 

>  <AUTHOR>
    GENERATED BY OPEN BABEL 3.2.1

>  <MASTER>
        0    0    0    0    0    0    0    0   38    0   38    0

$$$$
