../../databases/Vina/outputs/8AEU_M0L/8AEU_M0L1.pdb
 OpenBabel08242612033D

 43 47  0  0  1  0  0  0  0  0999 V2000
   31.4230    6.8930   20.7700 O   0  0  0  0  0  0  0  0  0  0  0  0
   31.5110    5.5580   18.9930 N   0  0  0  0  0  0  0  0  0  0  0  0
   30.6780    8.9380   16.8620 N   0  0  0  0  0  0  0  0  0  0  0  0
   30.3410    9.1790   15.9300 H   0  0  0  0  0  0  0  0  0  0  0  0
   30.9390    7.8090   18.7870 N   0  0  0  0  0  0  0  0  0  0  0  0
   31.4320    9.1510   19.1220 C   0  0  1  0  0  0  0  0  0  0  0  0
   32.7320    6.3510   17.1790 C   0  0  0  0  0  0  0  0  0  0  0  0
   31.9880    5.4230   17.7440 C   0  0  0  0  0  0  0  0  0  0  0  0
   31.2950    6.7560   19.5840 C   0  0  0  0  0  0  0  0  0  0  0  0
   31.6140    9.7210   17.6860 C   0  0  2  0  0  0  0  0  0  0  0  0
   30.3690    7.8990   17.5360 C   0  0  2  0  0  0  0  0  0  0  0  0
   31.3000    4.3290   19.7660 C   0  0  0  0  0  0  0  0  0  0  0  0
   30.5150    3.3750   18.9320 C   0  0  0  0  0  0  0  0  0  0  0  0
   31.1310    3.2570   17.6500 N   0  0  0  0  0  0  0  0  0  0  0  0
   31.1160    2.3400   17.2020 H   0  0  0  0  0  0  0  0  0  0  0  0
   31.7210    4.2470   17.0000 C   0  0  0  0  0  0  0  0  0  0  0  0
   32.0170    4.1190   15.8270 O   0  0  0  0  0  0  0  0  0  0  0  0
   29.4730    6.8730   16.9830 C   0  0  0  0  0  0  0  0  0  0  0  0
   29.5600    6.4360   15.6610 C   0  0  0  0  0  0  0  0  0  0  0  0
   28.8240    5.3630   15.2150 C   0  0  0  0  0  0  0  0  0  0  0  0
   27.9560    4.7330   16.0860 C   0  0  0  0  0  0  0  0  0  0  0  0
   27.8180    5.1750   17.3840 C   0  0  0  0  0  0  0  0  0  0  0  0
   28.5730    6.2400   17.8260 C   0  0  0  0  0  0  0  0  0  0  0  0
   30.2990    7.2200   14.8280 O   0  0  0  0  0  0  0  0  0  0  0  0
   29.7490    7.8030   13.6320 C   0  0  0  0  0  0  0  0  0  0  0  0
   28.6160    8.7310   13.7810 C   0  0  0  0  0  0  0  0  0  0  0  0
   30.9120    8.4200   12.9590 C   0  0  0  0  0  0  0  0  0  0  0  0
   27.2170    3.6640   15.6920 O   0  0  0  0  0  0  0  0  0  0  0  0
   26.1960    3.2370   16.5710 C   0  0  0  0  0  0  0  0  0  0  0  0
   30.4800    9.9510   19.9840 C   0  0  0  0  0  0  0  0  0  0  0  0
   30.9730   10.8500   20.9100 C   0  0  0  0  0  0  0  0  0  0  0  0
   30.1260   11.6220   21.6800 C   0  0  0  0  0  0  0  0  0  0  0  0
   28.7740   11.4830   21.5270 C   0  0  0  0  0  0  0  0  0  0  0  0
   27.7090   12.4750   22.4630 Cl  0  0  0  0  0  0  0  0  0  0  0  0
   28.2480   10.5890   20.6310 C   0  0  0  0  0  0  0  0  0  0  0  0
   29.1060    9.8260   19.8610 C   0  0  0  0  0  0  0  0  0  0  0  0
   31.4090   11.2140   17.5560 C   0  0  0  0  0  0  0  0  0  0  0  0
   32.4760   12.0890   17.6800 C   0  0  0  0  0  0  0  0  0  0  0  0
   32.2910   13.4550   17.5990 C   0  0  0  0  0  0  0  0  0  0  0  0
   31.0270   13.9480   17.4010 C   0  0  0  0  0  0  0  0  0  0  0  0
   30.7670   15.6600   17.4370 Cl  0  0  0  0  0  0  0  0  0  0  0  0
   29.9540   13.1090   17.2480 C   0  0  0  0  0  0  0  0  0  0  0  0
   30.1510   11.7430   17.3270 C   0  0  0  0  0  0  0  0  0  0  0  0
  1  9  2  0  0  0  0
  2  8  1  0  0  0  0
  2  9  1  0  0  0  0
  2 12  1  0  0  0  0
  3  4  1  0  0  0  0
  3 11  1  0  0  0  0
  3 10  1  0  0  0  0
  5 11  1  0  0  0  0
  5  6  1  0  0  0  0
  5  9  1  0  0  0  0
  6 10  1  0  0  0  0
  6 30  1  1  0  0  0
  7  8  2  0  0  0  0
  8 16  1  0  0  0  0
 10 37  1  1  0  0  0
 11 18  1  6  0  0  0
 12 13  1  0  0  0  0
 13 14  1  0  0  0  0
 14 16  1  0  0  0  0
 14 15  1  0  0  0  0
 16 17  2  0  0  0  0
 18 19  2  0  0  0  0
 18 23  1  0  0  0  0
 19 24  1  0  0  0  0
 19 20  1  0  0  0  0
 20 21  2  0  0  0  0
 21 28  1  0  0  0  0
 21 22  1  0  0  0  0
 22 23  2  0  0  0  0
 24 25  1  0  0  0  0
 25 27  1  0  0  0  0
 25 26  1  0  0  0  0
 28 29  1  0  0  0  0
 30 36  2  0  0  0  0
 30 31  1  0  0  0  0
 31 32  2  0  0  0  0
 32 33  1  0  0  0  0
 33 35  2  0  0  0  0
 33 34  1  0  0  0  0
 35 36  1  0  0  0  0
 37 43  2  0  0  0  0
 37 38  1  0  0  0  0
 38 39  2  0  0  0  0
 39 40  1  0  0  0  0
 40 42  2  0  0  0  0
 40 41  1  0  0  0  0
 42 43  1  0  0  0  0
M  END
>  <MODEL>
1

>  <REMARK>
 VINA RESULT:    -6.047      0.000      0.000
 INTER + INTRA:         -10.377
 INTER:                  -8.168
 INTRA:                  -2.209
 UNBOUND:                -2.209
  6 active torsions:
  status: ('A' for Active; 'I' for Inactive)
       I    between atoms: N_2  and  C_26 
    1  A    between atoms: O_3  and  C_32 
       I    between atoms: N_6  and  C_26 
    2  A    between atoms: O_12  and  C_36 
    3  A    between atoms: O_12  and  C_34 
    4  A    between atoms: C_16  and  C_20 
    5  A    between atoms: C_29  and  C_30 
    6  A    between atoms: C_31  and  C_35 

>  <COMPND>
    /home/daniil/Downloads/ml_docking_review/databases/Vina/outputs/8AEU_M0L/8AEU_M0L.pdbqt 

>  <AUTHOR>
    GENERATED BY OPEN BABEL 3.2.1

>  <MASTER>
        0    0    0    0    0    0    0    0   43    0   43    0

$$$$
