../../databases/Vina/outputs/7L00_XCJ/7L00_XCJ1.pdb
 OpenBabel08242616453D

 30 33  0  0  1  0  0  0  0  0999 V2000
    6.9440   14.4560   31.4500 C   0  0  0  0  0  0  0  0  0  0  0  0
    7.2000   14.6390   32.8460 N   0  0  0  0  0  0  0  0  0  0  0  0
    6.4300   14.6350   33.5150 H   0  0  0  0  0  0  0  0  0  0  0  0
    7.8010   14.5310   30.6340 O   0  0  0  0  0  0  0  0  0  0  0  0
    8.5220   14.8260   33.2890 C   0  0  1  0  0  0  0  0  0  0  0  0
    8.7870   14.5930   34.5960 N   0  0  0  0  0  0  0  0  0  0  0  0
   10.1860   14.7660   34.7860 C   0  0  0  0  0  0  0  0  0  0  0  0
    8.1080   14.3390   35.3130 H   0  0  0  0  0  0  0  0  0  0  0  0
   10.9290   15.0950   33.6460 C   0  0  0  0  0  0  0  0  0  0  0  0
   10.7580   14.6040   36.0650 C   0  0  0  0  0  0  0  0  0  0  0  0
   12.2910   15.2760   33.7840 C   0  0  0  0  0  0  0  0  0  0  0  0
    9.8840   15.1990   32.3590 S   0  0  0  0  0  0  0  0  0  0  0  0
   12.8400   15.1210   35.0460 C   0  0  0  0  0  0  0  0  0  0  0  0
   12.1160   14.7830   36.1920 C   0  0  0  0  0  0  0  0  0  0  0  0
   14.6040   15.3440   35.1610 S   0  0  0  0  0  0  0  0  0  0  0  0
   14.9920   15.4240   36.9190 C   0  0  0  0  0  0  0  0  0  0  0  0
   15.0360   16.5380   34.4440 O   0  0  0  0  0  0  0  0  0  0  0  0
   15.3210   14.2290   34.5090 O   0  0  0  0  0  0  0  0  0  0  0  0
    5.5030   14.1690   31.1040 C   0  0  0  0  0  0  0  0  0  0  0  0
    4.8900   15.3320   30.3730 C   0  0  0  0  0  0  0  0  0  0  0  0
    5.7580   16.3100   29.7660 N   0  0  0  0  0  0  0  0  0  0  0  0
    5.0090   17.2870   29.1600 C   0  0  2  0  0  0  0  0  0  0  0  0
    6.7780   16.2790   29.7830 H   0  0  0  0  0  0  0  0  0  0  0  0
    3.4060   17.0030   29.3240 S   0  0  0  0  0  0  0  0  0  0  0  0
    3.5140   15.6400   30.1770 C   0  0  0  0  0  0  0  0  0  0  0  0
    5.6300   18.3620   28.4510 N   0  0  0  0  0  0  0  0  0  0  0  0
    5.6290   18.4300   27.1100 C   0  0  0  0  0  0  0  0  0  0  0  0
    6.2930   19.5910   26.7790 C   0  0  0  0  0  0  0  0  0  0  0  0
    6.6770   20.1970   27.9440 C   0  0  0  0  0  0  0  0  0  0  0  0
    6.2550   19.4170   28.9960 C   0  0  0  0  0  0  0  0  0  0  0  0
  1  4  2  0  0  0  0
  1 19  1  0  0  0  0
  1  2  1  0  0  0  0
  2  3  1  0  0  0  0
  5  2  1  6  0  0  0
  5 12  1  0  0  0  0
  5  6  1  0  0  0  0
  6  7  1  0  0  0  0
  6  8  1  0  0  0  0
  7  9  2  0  0  0  0
  7 10  1  0  0  0  0
  9 12  1  0  0  0  0
  9 11  1  0  0  0  0
 10 14  2  0  0  0  0
 11 13  2  0  0  0  0
 13 15  1  0  0  0  0
 13 14  1  0  0  0  0
 15 17  2  0  0  0  0
 15 18  2  0  0  0  0
 15 16  1  0  0  0  0
 19 20  1  0  0  0  0
 20 21  1  0  0  0  0
 20 25  2  0  0  0  0
 21 22  1  0  0  0  0
 21 23  1  0  0  0  0
 22 26  1  6  0  0  0
 22 24  1  0  0  0  0
 24 25  1  0  0  0  0
 26 27  1  0  0  0  0
 26 30  1  0  0  0  0
 27 28  2  0  0  0  0
 28 29  1  0  0  0  0
 29 30  2  0  0  0  0
M  END
>  <MODEL>
1

>  <REMARK>
 VINA RESULT:   -10.111      0.000      0.000
 INTER + INTRA:         -13.092
 INTER:                 -13.066
 INTRA:                  -0.026
 UNBOUND:                -0.026
  5 active torsions:
  status: ('A' for Active; 'I' for Inactive)
    1  A    between atoms: C_2  and  S_28 
    2  A    between atoms: C_8  and  N_20 
    3  A    between atoms: C_9  and  C_10 
       I    between atoms: C_9  and  N_20 
    4  A    between atoms: C_10  and  C_11 
    5  A    between atoms: C_13  and  N_22 

>  <COMPND>
    /home/daniil/Downloads/ml_docking_review/databases/Vina/outputs/7L00_XCJ/7L00_XCJ.pdbqt 

>  <AUTHOR>
    GENERATED BY OPEN BABEL 3.2.1

>  <MASTER>
        0    0    0    0    0    0    0    0   30    0   30    0

$$$$
