../../databases/Vina/outputs/7ZCC_OGA/7ZCC_OGA1.pdb
 OpenBabel08242612033D

 11 10  0  0  0  0  0  0  0  0999 V2000
   37.5610   16.7040   58.7950 C   0  0  0  0  0  0  0  0  0  0  0  0
   37.4710   17.7970   58.2830 O   0  0  0  0  0  0  0  0  0  0  0  0
   38.6920   16.2700   59.5860 N   0  0  0  0  0  0  0  0  0  0  0  0
   38.7080   15.3390   60.0020 H   0  0  0  0  0  0  0  0  0  0  0  0
   39.7850   17.1680   59.7750 C   0  0  0  0  0  0  0  0  0  0  0  0
   41.0990   16.3810   59.8900 C   0  0  0  0  0  0  0  0  0  0  0  0
   42.2520   16.9600   60.0270 O   0  0  0  0  0  0  0  0  0  0  0  0
   40.9870   15.1480   59.8550 O   0  0  0  0  0  0  0  0  0  0  0  0
   36.3950   15.7900   58.5750 C   0  0  0  0  0  0  0  0  0  0  0  0
   35.3220   16.0610   59.2070 O   0  0  0  0  0  0  0  0  0  0  0  0
   36.6330   14.8140   57.7260 O   0  0  0  0  0  0  0  0  0  0  0  0
  1  2  2  0  0  0  0
  1  9  1  0  0  0  0
  1  3  1  0  0  0  0
  3  5  1  0  0  0  0
  3  4  1  0  0  0  0
  5  6  1  0  0  0  0
  6  8  2  0  0  0  0
  6  7  1  0  0  0  0
  9 11  2  0  0  0  0
  9 10  1  0  0  0  0
M  END
>  <MODEL>
1

>  <REMARK>
 VINA RESULT:    -5.931      0.000      0.000
 INTER + INTRA:          -7.055
 INTER:                  -6.971
 INTRA:                  -0.084
 UNBOUND:                -0.084
  3 active torsions:
  status: ('A' for Active; 'I' for Inactive)
    1  A    between atoms: C_1  and  C_2 
       I    between atoms: C_2  and  N_9 
    2  A    between atoms: C_3  and  C_4 
    3  A    between atoms: C_3  and  N_9 

>  <COMPND>
    /home/daniil/Downloads/ml_docking_review/databases/Vina/outputs/7ZCC_OGA/7ZCC_OGA.pdbqt 

>  <AUTHOR>
    GENERATED BY OPEN BABEL 3.2.1

>  <MASTER>
        0    0    0    0    0    0    0    0   11    0   11    0

$$$$
