../../databases/Vina/outputs/6XM9_V55/6XM9_V551.pdb
 OpenBabel08242616453D

 12 12  0  0  0  0  0  0  0  0999 V2000
   23.0760   11.2070   35.3750 C   0  0  0  0  0  0  0  0  0  0  0  0
   22.3870   10.3290   36.1020 C   0  0  0  0  0  0  0  0  0  0  0  0
   21.5180    9.2890   35.3990 C   0  0  0  0  0  0  0  0  0  0  0  0
   21.4810    9.2800   34.0930 C   0  0  0  0  0  0  0  0  0  0  0  0
   22.2720   10.2800   33.2630 C   0  0  0  0  0  0  0  0  0  0  0  0
   23.0150   11.1770   33.8580 C   0  0  0  0  0  0  0  0  0  0  0  0
   23.9570   12.2740   36.0150 C   0  0  0  0  0  0  0  0  0  0  0  0
   23.4720   13.0320   36.7600 O   0  0  0  0  0  0  0  0  0  0  0  0
   20.7590    8.3140   36.0630 O   0  0  0  0  0  0  0  0  0  0  0  0
   21.3380    7.7860   37.2290 C   0  0  0  0  0  0  0  0  0  0  0  0
   20.7010    8.3310   33.4370 O   0  0  0  0  0  0  0  0  0  0  0  0
   20.4920    7.5200   33.8870 H   0  0  0  0  0  0  0  0  0  0  0  0
  1  6  2  0  0  0  0
  1  7  1  0  0  0  0
  1  2  1  0  0  0  0
  2  3  2  0  0  0  0
  3  4  1  0  0  0  0
  3  9  1  0  0  0  0
  4  5  2  0  0  0  0
  4 11  1  0  0  0  0
  5  6  1  0  0  0  0
  7  8  2  0  0  0  0
  9 10  1  0  0  0  0
 11 12  1  0  0  0  0
M  END
>  <MODEL>
1

>  <REMARK>
 VINA RESULT:    -6.305      0.000      0.000
 INTER + INTRA:          -7.300
 INTER:                  -7.226
 INTRA:                  -0.074
 UNBOUND:                -0.074
  3 active torsions:
  status: ('A' for Active; 'I' for Inactive)
    1  A    between atoms: C_1  and  C_8 
    2  A    between atoms: C_3  and  O_10 
    3  A    between atoms: C_4  and  O_11 

>  <COMPND>
    /home/daniil/Downloads/ml_docking_review/databases/Vina/outputs/6XM9_V55/6XM9_V55.pdbqt 

>  <AUTHOR>
    GENERATED BY OPEN BABEL 3.2.1

>  <MASTER>
        0    0    0    0    0    0    0    0   12    0   12    0

$$$$
