../../databases/Vina/outputs/7QHL_D5P/7QHL_D5P1.pdb
 OpenBabel08242616453D

 39 43  0  0  1  0  0  0  0  0999 V2000
   22.5500  -14.6170   36.7120 C   0  0  0  0  0  0  0  0  0  0  0  0
   22.1690  -13.9840   35.5130 C   0  0  0  0  0  0  0  0  0  0  0  0
   22.5720  -14.5260   34.2880 C   0  0  0  0  0  0  0  0  0  0  0  0
   23.6450  -16.1700   35.4140 C   0  0  1  0  0  0  0  0  0  0  0  0
   23.3430  -15.6960   36.6530 N   0  0  0  0  0  0  0  0  0  0  0  0
   23.7040  -16.1400   37.4970 H   0  0  0  0  0  0  0  0  0  0  0  0
   21.4720  -12.8810   35.2010 N   0  0  0  0  0  0  0  0  0  0  0  0
   21.0830  -12.2270   35.8810 H   0  0  0  0  0  0  0  0  0  0  0  0
   21.3560  -12.7570   33.8500 N   0  0  0  0  0  0  0  0  0  0  0  0
   20.8330  -12.0320   33.3580 H   0  0  0  0  0  0  0  0  0  0  0  0
   22.0390  -13.7430   33.2830 C   0  0  0  0  0  0  0  0  0  0  0  0
   23.3230  -15.6470   34.2180 N   0  0  0  0  0  0  0  0  0  0  0  0
   23.6200  -16.0610   33.3340 H   0  0  0  0  0  0  0  0  0  0  0  0
   22.1540  -14.1450   37.9060 N   0  0  0  0  0  0  0  0  0  0  0  0
   21.9670  -13.1460   37.9910 H   0  0  0  0  0  0  0  0  0  0  0  0
   21.9770  -14.9750   39.0830 C   0  0  0  0  0  0  0  0  0  0  0  0
   23.1120  -14.7880   40.0440 C   0  0  0  0  0  0  0  0  0  0  0  0
   23.3220  -13.5570   40.6380 C   0  0  0  0  0  0  0  0  0  0  0  0
   24.3420  -13.3800   41.5560 C   0  0  0  0  0  0  0  0  0  0  0  0
   25.1530  -14.4410   41.8820 C   0  0  0  0  0  0  0  0  0  0  0  0
   24.9780  -15.6740   41.2820 C   0  0  0  0  0  0  0  0  0  0  0  0
   23.9300  -15.8430   40.3970 C   0  0  0  0  0  0  0  0  0  0  0  0
   26.2280  -14.2420   42.7870 N   0  0  0  0  0  0  0  0  0  0  0  0
   27.3160  -15.0540   42.7280 N   0  0  0  0  0  0  0  0  0  0  0  0
   28.1490  -14.5670   43.6630 C   0  0  0  0  0  0  0  0  0  0  0  0
   27.4670  -15.8530   42.1120 H   0  0  0  0  0  0  0  0  0  0  0  0
   27.6160  -13.4540   44.2880 C   0  0  0  0  0  0  0  0  0  0  0  0
   26.3970  -13.2520   43.6880 C   0  0  0  0  0  0  0  0  0  0  0  0
   24.6840  -17.5660   35.3470 S   0  0  0  0  0  0  0  0  0  0  0  0
   24.4830  -18.2120   33.6410 C   0  0  0  0  0  0  0  0  0  0  0  0
   23.7130  -19.5110   33.6440 C   0  0  0  0  0  0  0  0  0  0  0  0
   22.4550  -19.5080   34.4220 N   0  0  0  0  0  4  0  0  0  0  0  0
   21.7310  -19.0050   33.9110 H   0  0  0  0  0  0  0  0  0  0  0  0
   22.0520  -20.4450   34.4350 H   0  0  0  0  0  0  0  0  0  0  0  0
   22.5240  -19.1470   35.3740 H   0  0  0  0  0  0  0  0  0  0  0  0
   22.0870  -13.8770   31.8060 C   0  0  0  0  0  0  0  0  0  0  0  0
   23.3140  -14.5510   31.2080 C   0  0  0  0  0  0  0  0  0  0  0  0
   22.3920  -15.4220   30.3090 C   0  0  0  0  0  0  0  0  0  0  0  0
   21.1960  -14.9950   31.1370 C   0  0  0  0  0  0  0  0  0  0  0  0
  1  2  2  0  0  0  0
  1  5  1  0  0  0  0
  1 14  1  0  0  0  0
  2  3  1  0  0  0  0
  2  7  1  0  0  0  0
  3 11  2  0  0  0  0
  3 12  1  0  0  0  0
  4 12  1  0  0  0  0
  4 29  1  1  0  0  0
  4  5  1  0  0  0  0
  5  6  1  0  0  0  0
  7  9  1  0  0  0  0
  7  8  1  0  0  0  0
  9 11  1  0  0  0  0
  9 10  1  0  0  0  0
 11 36  1  0  0  0  0
 12 13  1  0  0  0  0
 14 15  1  0  0  0  0
 14 16  1  0  0  0  0
 16 17  1  0  0  0  0
 17 22  2  0  0  0  0
 17 18  1  0  0  0  0
 18 19  2  0  0  0  0
 19 20  1  0  0  0  0
 20 21  2  0  0  0  0
 20 23  1  0  0  0  0
 21 22  1  0  0  0  0
 23 24  1  0  0  0  0
 23 28  1  0  0  0  0
 24 26  1  0  0  0  0
 24 25  1  0  0  0  0
 25 27  1  0  0  0  0
 27 28  2  0  0  0  0
 29 30  1  0  0  0  0
 30 31  1  0  0  0  0
 31 32  1  0  0  0  0
 32 33  1  0  0  0  0
 32 34  1  0  0  0  0
 32 35  1  0  0  0  0
 36 39  1  0  0  0  0
 36 37  1  0  0  0  0
 37 38  1  0  0  0  0
 38 39  1  0  0  0  0
M  END
>  <MODEL>
1

>  <REMARK>
 VINA RESULT:    -9.338      0.000      0.000
 INTER + INTRA:         -14.824
 INTER:                 -13.979
 INTRA:                  -0.845
 UNBOUND:                -0.845
  9 active torsions:
  status: ('A' for Active; 'I' for Inactive)
    1  A    between atoms: N_1  and  C_18 
    2  A    between atoms: N_5  and  C_7 
    3  A    between atoms: N_5  and  C_8 
    4  A    between atoms: C_8  and  C_9 
    5  A    between atoms: C_15  and  C_35 
    6  A    between atoms: C_18  and  C_19 
    7  A    between atoms: C_19  and  S_20 
    8  A    between atoms: S_20  and  C_21 
    9  A    between atoms: C_24  and  N_25 

>  <COMPND>
    /home/daniil/Downloads/ml_docking_review/databases/Vina/outputs/7QHL_D5P/7QHL_D5P.pdbqt 

>  <AUTHOR>
    GENERATED BY OPEN BABEL 3.2.1

>  <MASTER>
        0    0    0    0    0    0    0    0   39    0   39    0

$$$$
