../../databases/Vina/outputs/7F5D_EUO/7F5D_EUO1.pdb
 OpenBabel08242616453D

 25 27  0  0  1  0  0  0  0  0999 V2000
    6.9540   -5.3980   30.4900 C   0  0  2  0  0  0  0  0  0  0  0  0
    4.7790   -4.8810   30.7240 C   0  0  1  0  0  0  0  0  0  0  0  0
    4.7040   -4.5940   29.3610 C   0  0  0  0  0  0  0  0  0  0  0  0
    5.8610   -4.7480   28.6020 C   0  0  0  0  0  0  0  0  0  0  0  0
    5.9160   -5.2730   31.2680 N   0  0  0  0  0  0  0  0  0  0  0  0
    5.9800   -5.4730   32.2670 H   0  0  0  0  0  0  0  0  0  0  0  0
    6.9520   -5.1510   29.2020 N   0  0  0  0  0  0  0  0  0  0  0  0
    7.8080   -5.2730   28.6620 H   0  0  0  0  0  0  0  0  0  0  0  0
    5.9360   -4.4800   27.1030 C   0  0  0  0  0  0  0  0  0  0  0  0
    7.1910   -4.3920   26.5010 C   0  0  0  0  0  0  0  0  0  0  0  0
    7.2970   -4.1480   25.1060 C   0  0  0  0  0  0  0  0  0  0  0  0
    8.4220   -4.0040   24.2360 C   0  0  0  0  0  0  0  0  0  0  0  0
    6.1600   -3.9990   24.3550 C   0  0  0  0  0  0  0  0  0  0  0  0
    7.8630   -3.7780   22.9770 C   0  0  0  0  0  0  0  0  0  0  0  0
    6.5400   -3.7790   23.0660 N   0  0  0  0  0  0  0  0  0  0  0  0
    5.9020   -3.6370   22.2840 H   0  0  0  0  0  0  0  0  0  0  0  0
    4.8800   -4.0940   24.9720 C   0  0  0  0  0  0  0  0  0  0  0  0
    4.7780   -4.3350   26.3400 C   0  0  0  0  0  0  0  0  0  0  0  0
    3.6340   -4.7560   31.6010 N   0  0  0  0  0  0  0  0  0  0  0  0
    2.9290   -5.9280   32.0970 C   0  0  0  0  0  0  0  0  0  0  0  0
    3.3160   -3.8280   31.8760 H   0  0  0  0  0  0  0  0  0  0  0  0
    8.4860   -5.9500   31.2220 S   0  0  0  0  0  0  0  0  0  0  0  0
    8.2490   -6.2300   32.6340 O   0  0  0  0  0  0  0  0  0  0  0  0
    8.9480   -7.1710   30.5740 O   0  0  0  0  0  0  0  0  0  0  0  0
    9.6810   -4.6200   30.9850 C   0  0  0  0  0  0  0  0  0  0  0  0
  1  7  1  0  0  0  0
  1 22  1  6  0  0  0
  1  5  1  0  0  0  0
  2  3  1  0  0  0  0
  2  5  1  0  0  0  0
  2 19  1  1  0  0  0
  3  4  2  0  0  0  0
  4  9  1  0  0  0  0
  4  7  1  0  0  0  0
  5  6  1  0  0  0  0
  7  8  1  0  0  0  0
  9 18  2  0  0  0  0
  9 10  1  0  0  0  0
 10 11  2  0  0  0  0
 11 12  1  0  0  0  0
 11 13  1  0  0  0  0
 12 14  2  0  0  0  0
 13 15  1  0  0  0  0
 13 17  2  0  0  0  0
 14 15  1  0  0  0  0
 15 16  1  0  0  0  0
 17 18  1  0  0  0  0
 19 21  1  0  0  0  0
 19 20  1  0  0  0  0
 22 24  2  0  0  0  0
 22 25  1  0  0  0  0
 22 23  2  0  0  0  0
M  END
>  <MODEL>
1

>  <REMARK>
 VINA RESULT:    -8.139      0.000      0.000
 INTER + INTRA:         -10.007
 INTER:                  -9.566
 INTRA:                  -0.440
 UNBOUND:                -0.440
  3 active torsions:
  status: ('A' for Active; 'I' for Inactive)
    1  A    between atoms: C_4  and  S_25 
    2  A    between atoms: C_5  and  N_21 
    3  A    between atoms: C_7  and  C_8 

>  <COMPND>
    /home/daniil/Downloads/ml_docking_review/databases/Vina/outputs/7F5D_EUO/7F5D_EUO.pdbqt 

>  <AUTHOR>
    GENERATED BY OPEN BABEL 3.2.1

>  <MASTER>
        0    0    0    0    0    0    0    0   25    0   25    0

$$$$
