../../databases/Vina/outputs/7MS7_ZQ1/7MS7_ZQ11.pdb
 OpenBabel08242616453D

 25 27  0  0  1  0  0  0  0  0999 V2000
   21.4810   41.4550  -18.5610 C   0  0  0  0  0  0  0  0  0  0  0  0
   20.9550   42.6740  -17.8210 C   0  0  0  0  0  0  0  0  0  0  0  0
   22.0220   43.2330  -16.8930 C   0  0  1  0  0  0  0  0  0  0  0  0
   22.7070   41.7430  -19.3180 N   0  0  0  0  0  0  0  0  0  0  0  0
   23.7750   42.2780  -18.4490 C   0  0  0  0  0  0  0  0  0  0  0  0
   23.2900   43.5200  -17.6870 C   0  0  0  0  0  0  0  0  0  0  0  0
   23.1720   40.5330  -20.3190 S   0  0  0  0  0  0  0  0  0  0  0  0
   22.1320   39.5520  -20.2480 O   0  0  0  0  0  0  0  0  0  0  0  0
   23.4950   41.1410  -21.5700 O   0  0  0  0  0  0  0  0  0  0  0  0
   24.6340   39.7490  -19.7370 C   0  0  0  0  0  0  0  0  0  0  0  0
   24.5860   38.8190  -18.7160 C   0  0  0  0  0  0  0  0  0  0  0  0
   25.6720   38.2870  -18.1690 N   0  0  0  0  0  0  0  0  0  0  0  0
   26.8700   38.6410  -18.6670 C   0  0  0  0  0  0  0  0  0  0  0  0
   25.6000   37.6280  -17.3940 H   0  0  0  0  0  0  0  0  0  0  0  0
   27.0080   39.5510  -19.7070 C   0  0  0  0  0  0  0  0  0  0  0  0
   25.8670   40.1190  -20.2370 C   0  0  0  0  0  0  0  0  0  0  0  0
   28.0910   37.9440  -18.1450 C   0  0  0  0  0  0  0  0  0  0  0  0
   28.0620   36.7860  -17.7670 O   0  0  0  0  0  0  0  0  0  0  0  0
   21.5010   44.4380  -16.1240 C   0  0  0  0  0  0  0  0  0  0  0  0
   21.2450   45.6410  -16.7590 C   0  0  0  0  0  0  0  0  0  0  0  0
   20.8060   46.7380  -16.0490 C   0  0  0  0  0  0  0  0  0  0  0  0
   20.6080   46.6080  -14.7130 C   0  0  0  0  0  0  0  0  0  0  0  0
   20.7960   45.4360  -14.0600 C   0  0  0  0  0  0  0  0  0  0  0  0
   20.2130   48.0040  -13.7880 Cl  0  0  0  0  0  0  0  0  0  0  0  0
   21.2630   44.3490  -14.7680 C   0  0  0  0  0  0  0  0  0  0  0  0
  1  4  1  0  0  0  0
  1  2  1  0  0  0  0
  2  3  1  0  0  0  0
  3  6  1  0  0  0  0
  3 19  1  6  0  0  0
  4  7  1  0  0  0  0
  4  5  1  0  0  0  0
  5  6  1  0  0  0  0
  7  9  2  0  0  0  0
  7  8  2  0  0  0  0
  7 10  1  0  0  0  0
 10 16  2  0  0  0  0
 10 11  1  0  0  0  0
 11 12  1  0  0  0  0
 12 13  1  0  0  0  0
 12 14  1  0  0  0  0
 13 15  2  0  0  0  0
 13 17  1  0  0  0  0
 15 16  1  0  0  0  0
 17 18  2  0  0  0  0
 19 20  2  0  0  0  0
 19 25  1  0  0  0  0
 20 21  1  0  0  0  0
 21 22  2  0  0  0  0
 22 23  1  0  0  0  0
 22 24  1  0  0  0  0
 23 25  2  0  0  0  0
M  END
>  <MODEL>
1

>  <REMARK>
 VINA RESULT:    -7.193      0.000      0.000
 INTER + INTRA:          -9.366
 INTER:                  -8.875
 INTRA:                  -0.491
 UNBOUND:                -0.491
  4 active torsions:
  status: ('A' for Active; 'I' for Inactive)
    1  A    between atoms: C_3  and  C_4 
    2  A    between atoms: C_7  and  S_9 
    3  A    between atoms: S_9  and  N_19 
    4  A    between atoms: C_14  and  C_15 

>  <COMPND>
    /home/daniil/Downloads/ml_docking_review/databases/Vina/outputs/7MS7_ZQ1/7MS7_ZQ1.pdbqt 

>  <AUTHOR>
    GENERATED BY OPEN BABEL 3.2.1

>  <MASTER>
        0    0    0    0    0    0    0    0   25    0   25    0

$$$$
