../../databases/Vina/outputs/7UMW_NAD/7UMW_NAD1.pdb
 OpenBabel08242612033D

 51 55  0  0  1  0  0  0  0  0999 V2000
  -45.1950   52.2680  -27.1430 P   0  0  1  0  0  0  0  0  0  0  0  0
  -46.2100   53.0370  -26.3210 O   0  0  0  0  0  0  0  0  0  0  0  0
  -45.3100   52.5540  -28.6060 O   0  0  0  0  0  0  0  0  0  0  0  0
  -43.7420   52.6370  -26.4460 O   0  0  0  0  0  0  0  0  0  0  0  0
  -43.6120   53.9380  -25.9990 C   0  0  0  0  0  0  0  0  0  0  0  0
  -43.0520   53.8230  -24.5470 C   0  0  2  0  0  0  0  0  0  0  0  0
  -43.0370   52.6180  -24.1190 C   0  0  2  0  0  0  0  0  0  0  0  0
  -43.8940   52.6330  -22.7010 C   0  0  2  0  0  0  0  0  0  0  0  0
  -43.8370   53.8780  -22.3580 C   0  0  1  0  0  0  0  0  0  0  0  0
  -44.0950   54.5800  -23.6700 O   0  0  0  0  0  0  0  0  0  0  0  0
  -41.7090   52.2310  -23.6870 O   0  0  0  0  0  0  0  0  0  0  0  0
  -41.1660   52.9330  -24.0250 H   0  0  0  0  0  0  0  0  0  0  0  0
  -43.2840   51.7130  -21.7480 O   0  0  0  0  0  0  0  0  0  0  0  0
  -42.5760   51.1890  -22.1030 H   0  0  0  0  0  0  0  0  0  0  0  0
  -44.9340   54.1750  -21.4100 N   0  0  2  0  0  0  0  0  0  0  0  0
  -44.8580   53.8880  -20.0750 C   0  0  2  0  0  0  0  0  0  0  0  0
  -43.8900   53.3610  -19.2980 N   0  0  0  0  0  0  0  0  0  0  0  0
  -46.0590   54.2320  -19.5440 C   0  0  0  0  0  0  0  0  0  0  0  0
  -44.1200   53.1710  -18.0070 C   0  0  0  0  0  0  0  0  0  0  0  0
  -42.9870   53.1110  -19.7020 H   0  0  0  0  0  0  0  0  0  0  0  0
  -45.2590   53.5180  -17.4660 N   0  0  0  0  0  0  0  0  0  0  0  0
  -46.2520   54.0340  -18.1720 C   0  0  0  0  0  0  0  0  0  0  0  0
  -45.3870   53.3860  -16.4620 H   0  0  0  0  0  0  0  0  0  0  0  0
  -47.4960   54.4010  -17.5820 N   0  0  0  0  0  0  0  0  0  0  0  0
  -46.8200   54.7240  -20.5530 N   0  0  0  0  0  0  0  0  0  0  0  0
  -46.1030   54.6940  -21.6860 C   0  0  0  0  0  0  0  0  0  0  0  0
  -47.7780   55.0610  -20.4640 H   0  0  0  0  0  0  0  0  0  0  0  0
  -45.4030   50.6710  -26.9380 O   0  0  0  0  0  0  0  0  0  0  0  0
  -46.7910   49.8160  -27.2270 P   0  0  1  0  0  0  0  0  0  0  0  0
  -47.9300   50.4270  -26.4410 O   0  0  0  0  0  0  0  0  0  0  0  0
  -46.9580   49.7790  -28.7050 O   0  0  0  0  0  0  0  0  0  0  0  0
  -46.4570   48.2770  -26.6620 O   0  0  0  0  0  0  0  0  0  0  0  0
  -46.4240   48.0590  -25.2100 C   0  0  0  0  0  0  0  0  0  0  0  0
  -45.8560   46.6470  -24.9650 C   0  0  2  0  0  0  0  0  0  0  0  0
  -44.3190   46.6770  -24.6410 C   0  0  2  0  0  0  0  0  0  0  0  0
  -43.6800   46.2000  -25.9400 C   0  0  2  0  0  0  0  0  0  0  0  0
  -44.5640   45.2470  -26.3320 C   0  0  1  0  0  0  0  0  0  0  0  0
  -45.9890   45.9330  -26.0880 O   0  0  0  0  0  0  0  0  0  0  0  0
  -44.0140   45.8070  -23.6220 O   0  0  0  0  0  0  0  0  0  0  0  0
  -44.2560   44.9220  -23.8690 H   0  0  0  0  0  0  0  0  0  0  0  0
  -42.3070   45.6660  -25.6760 O   0  0  0  0  0  0  0  0  0  0  0  0
  -42.2130   45.4360  -24.7590 H   0  0  0  0  0  0  0  0  0  0  0  0
  -44.6390   44.8500  -27.7020 N   0  0  0  0  0  0  0  0  0  0  0  0
  -44.6190   45.7500  -28.6970 C   0  0  0  0  0  0  0  0  0  0  0  0
  -44.7640   45.3110  -30.0360 C   0  0  0  0  0  0  0  0  0  0  0  0
  -44.9530   43.9700  -30.3740 C   0  0  0  0  0  0  0  0  0  0  0  0
  -44.9790   43.0740  -29.2700 C   0  0  0  0  0  0  0  0  0  0  0  0
  -44.8360   43.5620  -27.9580 C   0  0  0  0  0  0  0  0  0  0  0  0
  -44.6940   46.3130  -31.1790 C   0  0  0  0  0  0  0  0  0  0  0  0
  -45.1380   47.7110  -30.8670 N   0  0  0  0  0  0  0  0  0  0  0  0
  -44.2900   45.9770  -32.2770 O   0  0  0  0  0  0  0  0  0  0  0  0
  1  3  2  6  0  0  0
  1 28  1  0  0  0  0
  1  4  1  0  0  0  0
  1  2  1  0  0  0  0
  4  5  1  0  0  0  0
  6  5  1  6  0  0  0
  6  7  1  0  0  0  0
  6 10  1  0  0  0  0
  7 11  1  1  0  0  0
  7  8  1  0  0  0  0
  8  9  1  0  0  0  0
  8 13  1  1  0  0  0
  9 10  1  6  0  0  0
  9 15  1  0  0  0  0
 11 12  1  0  0  0  0
 13 14  1  0  0  0  0
 15 26  1  6  0  0  0
 15 16  1  0  0  0  0
 16 18  1  6  0  0  0
 16 17  1  0  0  0  0
 17 20  1  0  0  0  0
 17 19  1  0  0  0  0
 18 25  1  0  0  0  0
 18 22  2  0  0  0  0
 19 21  1  0  0  0  0
 21 22  1  0  0  0  0
 21 23  1  0  0  0  0
 22 24  1  0  0  0  0
 25 26  1  0  0  0  0
 25 27  1  0  0  0  0
 28 29  1  0  0  0  0
 29 31  2  6  0  0  0
 29 32  1  0  0  0  0
 29 30  1  0  0  0  0
 32 33  1  0  0  0  0
 34 33  1  6  0  0  0
 34 38  1  0  0  0  0
 34 35  1  0  0  0  0
 35 36  1  0  0  0  0
 35 39  1  1  0  0  0
 36 37  1  0  0  0  0
 36 41  1  1  0  0  0
 37 43  1  6  0  0  0
 37 38  1  0  0  0  0
 39 40  1  0  0  0  0
 41 42  1  0  0  0  0
 43 44  1  0  0  0  0
 43 48  1  0  0  0  0
 44 45  1  0  0  0  0
 45 49  1  0  0  0  0
 45 46  2  0  0  0  0
 46 47  1  0  0  0  0
 47 48  2  0  0  0  0
 49 51  2  0  0  0  0
 49 50  1  0  0  0  0
M  END
>  <MODEL>
1

>  <REMARK>
 VINA RESULT:   -12.385      0.000      0.000
 INTER + INTRA:         -23.845
 INTER:                 -21.798
 INTRA:                  -2.048
 UNBOUND:                -2.048
  15 active torsions:
  status: ('A' for Active; 'I' for Inactive)
    1  A    between atoms: P_1  and  O_4 
    2  A    between atoms: P_1  and  O_28 
    3  A    between atoms: O_4  and  C_5 
    4  A    between atoms: C_5  and  C_6 
    5  A    between atoms: C_8  and  O_9 
    6  A    between atoms: C_11  and  O_12 
    7  A    between atoms: C_14  and  N_15 
    8  A    between atoms: O_28  and  P_29 
    9  A    between atoms: P_29  and  O_32 
   10  A    between atoms: O_32  and  C_33 
   11  A    between atoms: C_33  and  C_34 
   12  A    between atoms: C_36  and  O_37 
   13  A    between atoms: C_39  and  O_40 
   14  A    between atoms: C_42  and  N_43 
   15  A    between atoms: C_45  and  C_46 

>  <COMPND>
    /home/daniil/Downloads/ml_docking_review/databases/Vina/outputs/7UMW_NAD/7UMW_NAD.pdbqt 

>  <AUTHOR>
    GENERATED BY OPEN BABEL 3.2.1

>  <MASTER>
        0    0    0    0    0    0    0    0   51    0   51    0

$$$$
