../../databases/Vina/outputs/7M41_YQG/7M41_YQG1.pdb
 OpenBabel08242611493D

 39 43  0  0  1  0  0  0  0  0999 V2000
  -21.7090  -38.8470    2.5010 N   0  0  0  0  0  0  0  0  0  0  0  0
  -21.9700  -38.5570    3.4440 H   0  0  0  0  0  0  0  0  0  0  0  0
  -23.0060  -40.6240   -0.3120 N   0  0  0  0  0  0  0  0  0  0  0  0
  -23.9480  -40.9520   -0.0980 H   0  0  0  0  0  0  0  0  0  0  0  0
  -19.5950  -37.7950    2.7530 C   0  0  0  0  0  0  0  0  0  0  0  0
  -20.4470  -38.5210    1.9720 C   0  0  0  0  0  0  0  0  0  0  0  0
  -20.0290  -38.8920    0.6660 C   0  0  0  0  0  0  0  0  0  0  0  0
  -22.5720  -39.5550    1.7290 C   0  0  1  0  0  0  0  0  0  0  0  0
  -20.9870  -39.6380   -0.0970 C   0  0  0  0  0  0  0  0  0  0  0  0
  -22.7450  -41.5400   -2.6970 C   0  0  0  0  0  0  0  0  0  0  0  0
  -18.7830  -38.5410    0.1410 C   0  0  0  0  0  0  0  0  0  0  0  0
  -17.9350  -37.8040    0.9560 C   0  0  0  0  0  0  0  0  0  0  0  0
  -18.3720  -37.4600    2.2410 C   0  0  0  0  0  0  0  0  0  0  0  0
  -22.2770  -40.7830   -1.4620 C   0  0  2  0  0  0  0  0  0  0  0  0
  -22.1950  -39.9520    0.4300 N   0  0  0  0  0  0  0  0  0  0  0  0
  -20.9640  -40.1710   -1.3380 N   0  0  0  0  0  0  0  0  0  0  0  0
  -20.2090  -40.1490   -2.0220 H   0  0  0  0  0  0  0  0  0  0  0  0
  -17.3410  -36.5310    3.3410 Cl  0  0  0  0  0  0  0  0  0  0  0  0
  -16.5450  -37.3460    0.5440 C   0  0  0  0  0  0  0  0  0  0  0  0
  -15.5230  -38.1660    0.5600 C   0  0  0  0  0  0  0  0  0  0  0  0
  -14.1540  -37.6400    0.1750 C   0  0  0  0  0  0  0  0  0  0  0  0
  -14.0140  -36.3820   -0.1720 C   0  0  0  0  0  0  0  0  0  0  0  0
  -15.1960  -35.4270   -0.1820 C   0  0  0  0  0  0  0  0  0  0  0  0
  -16.3820  -35.8750    0.1510 C   0  0  0  0  0  0  0  0  0  0  0  0
  -17.5820  -34.9240    0.1230 C   0  0  0  0  0  0  0  0  0  0  0  0
  -12.6920  -35.9030   -0.4680 N   0  0  0  0  0  0  0  0  0  0  0  0
  -11.9910  -35.9640    0.2720 H   0  0  0  0  0  0  0  0  0  0  0  0
  -12.2130  -35.2540   -1.9330 S   0  0  0  0  0  0  0  0  0  0  0  0
  -13.1560  -35.6630   -2.9870 O   0  0  0  0  0  0  0  0  0  0  0  0
  -10.8620  -35.6030   -2.3530 O   0  0  0  0  0  0  0  0  0  0  0  0
  -12.4220  -33.4790   -1.7710 C   0  0  1  0  0  0  0  0  0  0  0  0
  -13.5480  -32.8280   -1.7450 N   0  0  0  0  0  0  0  0  0  0  0  0
  -13.1240  -31.3330   -1.5810 C   0  0  0  0  0  0  0  0  0  0  0  0
  -14.4920  -33.2060   -1.8170 H   0  0  0  0  0  0  0  0  0  0  0  0
  -11.8030  -31.3070   -1.5280 C   0  0  0  0  0  0  0  0  0  0  0  0
  -11.4150  -32.5760   -1.6350 N   0  0  0  0  0  0  0  0  0  0  0  0
  -10.4330  -32.8510   -1.6150 H   0  0  0  0  0  0  0  0  0  0  0  0
  -23.8160  -39.8780    2.2350 O   0  0  0  0  0  0  0  0  0  0  0  0
  -24.5800  -39.4090    1.9180 H   0  0  0  0  0  0  0  0  0  0  0  0
  1  8  1  0  0  0  0
  1  6  1  0  0  0  0
  1  2  1  0  0  0  0
  3 14  1  0  0  0  0
  3  4  1  0  0  0  0
  3 15  1  0  0  0  0
  5  6  2  0  0  0  0
  5 13  1  0  0  0  0
  6  7  1  0  0  0  0
  7  9  2  0  0  0  0
  7 11  1  0  0  0  0
  8 15  1  0  0  0  0
  8 38  1  1  0  0  0
  9 16  1  0  0  0  0
  9 15  1  0  0  0  0
 11 12  1  0  0  0  0
 12 19  1  0  0  0  0
 12 13  2  0  0  0  0
 13 18  1  0  0  0  0
 14 10  1  1  0  0  0
 14 16  1  0  0  0  0
 16 17  1  0  0  0  0
 19 24  2  0  0  0  0
 19 20  1  0  0  0  0
 20 21  2  0  0  0  0
 21 22  1  0  0  0  0
 22 26  1  0  0  0  0
 22 23  2  0  0  0  0
 23 24  1  0  0  0  0
 24 25  1  0  0  0  0
 26 28  1  0  0  0  0
 26 27  1  0  0  0  0
 28 29  2  0  0  0  0
 28 30  2  0  0  0  0
 31 28  1  1  0  0  0
 31 32  1  0  0  0  0
 31 36  1  0  0  0  0
 32 34  1  0  0  0  0
 32 33  1  0  0  0  0
 33 35  2  0  0  0  0
 35 36  1  0  0  0  0
 36 37  1  0  0  0  0
 38 39  1  0  0  0  0
M  END
>  <MODEL>
1

>  <REMARK>
 VINA RESULT:    -7.923      0.000      0.000
 INTER + INTRA:         -10.911
 INTER:                 -10.007
 INTRA:                  -0.904
 UNBOUND:                -0.904
  5 active torsions:
  status: ('A' for Active; 'I' for Inactive)
    1  A    between atoms: C_8  and  O_34 
    2  A    between atoms: C_16  and  C_22 
    3  A    between atoms: C_18  and  N_28 
    4  A    between atoms: C_20  and  S_38 
    5  A    between atoms: N_28  and  S_38 

>  <COMPND>
    /home/daniil/Downloads/ml_docking_review/databases/Vina/outputs/7M41_YQG/7M41_YQG.pdbqt 

>  <AUTHOR>
    GENERATED BY OPEN BABEL 3.2.1

>  <MASTER>
        0    0    0    0    0    0    0    0   39    0   39    0

$$$$
