../../databases/Vina/outputs/7M6K_YRJ/7M6K_YRJ1.pdb
 OpenBabel08242616453D

 37 39  0  0  1  0  0  0  0  0999 V2000
   22.6790   -5.5150  -31.3110 C   0  0  0  0  0  0  0  0  0  0  0  0
   23.0470   -3.7930  -32.8750 C   0  0  0  0  0  0  0  0  0  0  0  0
   22.3720   -4.2870  -31.8200 C   0  0  0  0  0  0  0  0  0  0  0  0
   24.0440   -4.5950  -33.3980 C   0  0  0  0  0  0  0  0  0  0  0  0
   24.3270   -5.8240  -32.8560 C   0  0  0  0  0  0  0  0  0  0  0  0
   23.6580   -6.2440  -31.8420 N   0  0  0  0  0  0  0  0  0  0  0  0
   24.8470   -3.9900  -34.5920 C   0  0  0  0  0  0  0  0  0  0  0  0
   25.2170   -4.9280  -35.5970 N   0  0  0  0  0  0  0  0  0  0  0  0
   26.5730   -4.8380  -36.1130 C   0  0  0  0  0  0  0  0  0  0  0  0
   27.3450   -4.0630  -35.6910 O   0  0  0  0  0  0  0  0  0  0  0  0
   26.8560   -5.8460  -37.1820 N   0  0  0  0  0  0  0  0  0  0  0  0
   26.1350   -6.5220  -37.4340 H   0  0  0  0  0  0  0  0  0  0  0  0
   24.5600   -5.6300  -35.9390 H   0  0  0  0  0  0  0  0  0  0  0  0
   28.1340   -5.8810  -37.8680 C   0  0  0  0  0  0  0  0  0  0  0  0
   28.3500   -4.8850  -38.8130 C   0  0  0  0  0  0  0  0  0  0  0  0
   29.5220   -4.8660  -39.5350 C   0  0  0  0  0  0  0  0  0  0  0  0
   30.4450   -5.8560  -39.3500 C   0  0  0  0  0  0  0  0  0  0  0  0
   30.2120   -6.8730  -38.4390 C   0  0  0  0  0  0  0  0  0  0  0  0
   29.0310   -6.8940  -37.7030 C   0  0  0  0  0  0  0  0  0  0  0  0
   31.6470   -5.8300  -40.1150 N   0  0  0  0  0  0  0  0  0  0  0  0
   31.8730   -6.6910  -40.8690 O   0  0  0  0  0  0  0  0  0  0  0  0
   32.5530   -4.8050  -39.9300 O   0  0  0  0  0  0  0  0  0  0  0  0
   23.9160   -7.5630  -31.2590 C   0  0  2  0  0  0  0  0  0  0  0  0
   25.1550   -8.1870  -32.0330 O   0  0  0  0  0  0  0  0  0  0  0  0
   24.8600   -9.4490  -32.2860 C   0  0  1  0  0  0  0  0  0  0  0  0
   23.5340   -9.8240  -31.5030 C   0  0  2  0  0  0  0  0  0  0  0  0
   22.8850   -8.4530  -31.4480 C   0  0  1  0  0  0  0  0  0  0  0  0
   24.5350   -9.6310  -33.7900 C   0  0  0  0  0  0  0  0  0  0  0  0
   25.6600  -10.2210  -34.3710 O   0  0  0  0  0  0  0  0  0  0  0  0
   26.1840   -9.4960  -35.7500 P   0  0  0  0  0  0  0  0  0  0  0  0
   27.2010  -10.4040  -36.4140 O   0  0  0  0  0  0  0  0  0  0  0  0
   24.9800   -9.2990  -36.6810 O   0  0  0  0  0  0  0  0  0  0  0  0
   26.8190   -8.2030  -35.2970 O   0  0  0  0  0  0  0  0  0  0  0  0
   23.8520  -10.3360  -30.2110 O   0  0  0  0  0  0  0  0  0  0  0  0
   23.4240   -9.8190  -29.5380 H   0  0  0  0  0  0  0  0  0  0  0  0
   21.9520   -8.3940  -30.4460 O   0  0  0  0  0  0  0  0  0  0  0  0
   22.2660   -8.8340  -29.6650 H   0  0  0  0  0  0  0  0  0  0  0  0
  1  6  1  0  0  0  0
  1  3  1  0  0  0  0
  2  4  1  0  0  0  0
  2  3  2  0  0  0  0
  4  7  1  0  0  0  0
  4  5  2  0  0  0  0
  5  6  1  0  0  0  0
  7  8  1  0  0  0  0
  8  9  1  0  0  0  0
  8 13  1  0  0  0  0
  9 11  1  0  0  0  0
  9 10  2  0  0  0  0
 11 14  1  0  0  0  0
 11 12  1  0  0  0  0
 14 15  2  0  0  0  0
 14 19  1  0  0  0  0
 15 16  1  0  0  0  0
 16 17  2  0  0  0  0
 17 20  1  0  0  0  0
 17 18  1  0  0  0  0
 18 19  2  0  0  0  0
 20 21  2  0  0  0  0
 20 22  2  0  0  0  0
 23  6  1  6  0  0  0
 23 24  1  0  0  0  0
 23 27  1  0  0  0  0
 24 25  1  0  0  0  0
 25 28  1  6  0  0  0
 25 26  1  0  0  0  0
 26 27  1  0  0  0  0
 26 34  1  1  0  0  0
 27 36  1  1  0  0  0
 28 29  1  0  0  0  0
 29 30  1  0  0  0  0
 30 32  2  0  0  0  0
 30 31  1  0  0  0  0
 30 33  1  0  0  0  0
 34 35  1  0  0  0  0
 36 37  1  0  0  0  0
M  END
>  <MODEL>
1

>  <REMARK>
 VINA RESULT:   -11.498      0.000      0.000
 INTER + INTRA:         -18.994
 INTER:                 -17.548
 INTRA:                  -1.446
 UNBOUND:                -1.446
  10 active torsions:
  status: ('A' for Active; 'I' for Inactive)
    1  A    between atoms: C_3  and  C_13 
    2  A    between atoms: C_3  and  N_20 
       I    between atoms: C_4  and  N_22 
       I    between atoms: C_4  and  N_20 
    3  A    between atoms: C_6  and  N_24 
    4  A    between atoms: C_7  and  O_25 
    5  A    between atoms: C_8  and  O_27 
    6  A    between atoms: C_9  and  N_19 
    7  A    between atoms: C_10  and  C_11 
    8  A    between atoms: C_11  and  O_30 
    9  A    between atoms: C_15  and  N_22 
   10  A    between atoms: O_30  and  P_37 

>  <COMPND>
    /home/daniil/Downloads/ml_docking_review/databases/Vina/outputs/7M6K_YRJ/7M6K_YRJ.pdbqt 

>  <AUTHOR>
    GENERATED BY OPEN BABEL 3.2.1

>  <MASTER>
        0    0    0    0    0    0    0    0   37    0   37    0

$$$$
