../../databases/Vina/outputs/7RH8_UTP/7RH8_UTP1.pdb
 OpenBabel08242616453D

 32 33  0  0  1  0  0  0  0  0999 V2000
  -27.8060  -57.4680   -5.3970 C   0  0  1  0  0  0  0  0  0  0  0  0
  -26.5330  -56.7270   -4.7810 O   0  0  0  0  0  0  0  0  0  0  0  0
  -27.0400  -55.7310   -4.1180 C   0  0  2  0  0  0  0  0  0  0  0  0
  -28.3170  -55.3250   -4.8560 C   0  0  1  0  0  0  0  0  0  0  0  0
  -28.8570  -56.6250   -5.4250 C   0  0  2  0  0  0  0  0  0  0  0  0
  -27.2790  -57.8190   -6.8150 C   0  0  0  0  0  0  0  0  0  0  0  0
  -25.8710  -57.9360   -6.7380 O   0  0  0  0  0  0  0  0  0  0  0  0
  -25.0580  -59.0830   -7.6800 P   0  0  2  0  0  0  0  0  0  0  0  0
  -23.6190  -59.1110   -7.4160 O   0  0  0  0  0  0  0  0  0  0  0  0
  -25.5350  -58.8030   -9.0820 O   0  0  0  0  0  0  0  0  0  0  0  0
  -25.7630  -60.4630   -7.2360 O   0  0  0  0  0  0  0  0  0  0  0  0
  -25.1090  -61.9250   -7.0110 P   0  0  1  0  0  0  0  0  0  0  0  0
  -24.3670  -62.1990   -8.2700 O   0  0  0  0  0  0  0  0  0  0  0  0
  -24.1820  -62.1980   -5.8550 O   0  0  0  0  0  0  0  0  0  0  0  0
  -26.5040  -62.7440   -6.7730 O   0  0  0  0  0  0  0  0  0  0  0  0
  -27.3320  -63.6220   -7.8380 P   0  0  0  0  0  0  0  0  0  0  0  0
  -26.4570  -64.8010   -8.1990 O   0  0  0  0  0  0  0  0  0  0  0  0
  -27.6500  -62.6800   -9.0170 O   0  0  0  0  0  0  0  0  0  0  0  0
  -28.5260  -64.1420   -7.0760 O   0  0  0  0  0  0  0  0  0  0  0  0
  -30.1090  -56.9030   -4.5570 O   0  0  0  0  0  0  0  0  0  0  0  0
  -30.3450  -56.0430   -4.2300 H   0  0  0  0  0  0  0  0  0  0  0  0
  -26.0510  -54.6220   -4.0990 N   0  0  0  0  0  0  0  0  0  0  0  0
  -26.1680  -53.6580   -3.1760 C   0  0  0  0  0  0  0  0  0  0  0  0
  -25.2980  -52.6500   -3.1890 N   0  0  0  0  0  0  0  0  0  0  0  0
  -27.0400  -53.7560   -2.3270 O   0  0  0  0  0  0  0  0  0  0  0  0
  -24.3420  -52.5760   -4.1380 C   0  0  0  0  0  0  0  0  0  0  0  0
  -25.3550  -51.9250   -2.4730 H   0  0  0  0  0  0  0  0  0  0  0  0
  -23.6050  -51.6220   -4.0870 O   0  0  0  0  0  0  0  0  0  0  0  0
  -24.1990  -53.5590   -5.0920 C   0  0  0  0  0  0  0  0  0  0  0  0
  -25.1010  -54.5910   -5.0880 C   0  0  0  0  0  0  0  0  0  0  0  0
  -29.2820  -54.6360   -4.1190 O   0  0  0  0  0  0  0  0  0  0  0  0
  -30.1260  -55.0710   -4.1430 H   0  0  0  0  0  0  0  0  0  0  0  0
  1  6  1  6  0  0  0
  1  5  1  0  0  0  0
  1  2  1  0  0  0  0
  2  3  1  0  0  0  0
  3  4  1  0  0  0  0
  3 22  1  6  0  0  0
  4  5  1  0  0  0  0
  4 31  1  1  0  0  0
  5 20  1  1  0  0  0
  6  7  1  0  0  0  0
  7  8  1  0  0  0  0
  8 10  2  6  0  0  0
  8  9  1  0  0  0  0
  8 11  1  0  0  0  0
 11 12  1  0  0  0  0
 12 13  2  6  0  0  0
 12 15  1  0  0  0  0
 12 14  1  0  0  0  0
 15 16  1  0  0  0  0
 16 18  2  0  0  0  0
 16 17  1  0  0  0  0
 16 19  1  0  0  0  0
 20 21  1  0  0  0  0
 22 30  1  0  0  0  0
 22 23  1  0  0  0  0
 23 24  1  0  0  0  0
 23 25  2  0  0  0  0
 24 26  1  0  0  0  0
 24 27  1  0  0  0  0
 26 29  1  0  0  0  0
 26 28  2  0  0  0  0
 29 30  2  0  0  0  0
 31 32  1  0  0  0  0
M  END
>  <MODEL>
1

>  <REMARK>
 VINA RESULT:    -7.146      0.000      0.000
 INTER + INTRA:         -12.118
 INTER:                 -10.906
 INTRA:                  -1.212
 UNBOUND:                -1.212
  10 active torsions:
  status: ('A' for Active; 'I' for Inactive)
    1  A    between atoms: P_1  and  O_5 
    2  A    between atoms: P_1  and  O_4 
    3  A    between atoms: O_4  and  P_6 
    4  A    between atoms: O_5  and  C_14 
    5  A    between atoms: P_6  and  O_9 
    6  A    between atoms: O_9  and  P_10 
    7  A    between atoms: C_14  and  C_15 
    8  A    between atoms: C_17  and  N_24 
    9  A    between atoms: C_18  and  O_19 
   10  A    between atoms: C_21  and  O_22 

>  <COMPND>
    /home/daniil/Downloads/ml_docking_review/databases/Vina/outputs/7RH8_UTP/7RH8_UTP.pdbqt 

>  <AUTHOR>
    GENERATED BY OPEN BABEL 3.2.1

>  <MASTER>
        0    0    0    0    0    0    0    0   32    0   32    0

$$$$
