../../databases/Vina/outputs/6ZT2_QPK/6ZT2_QPK1.pdb
 OpenBabel08242612033D

 11 11  0  0  0  0  0  0  0  0999 V2000
   -8.2350   30.0690  -12.5440 C   0  0  0  0  0  0  0  0  0  0  0  0
   -8.8640   30.9740  -13.3840 C   0  0  0  0  0  0  0  0  0  0  0  0
   -8.5530   32.3160  -13.3040 C   0  0  0  0  0  0  0  0  0  0  0  0
   -7.6340   32.7980  -12.3800 C   0  0  0  0  0  0  0  0  0  0  0  0
   -7.0450   31.8610  -11.5410 C   0  0  0  0  0  0  0  0  0  0  0  0
   -7.3140   30.5140  -11.6130 C   0  0  0  0  0  0  0  0  0  0  0  0
   -6.2240   32.3210  -10.5730 F   0  0  0  0  0  0  0  0  0  0  0  0
   -9.1540   33.1820  -14.1410 F   0  0  0  0  0  0  0  0  0  0  0  0
  -10.0790   30.4430  -14.5000 Cl  0  0  0  0  0  0  0  0  0  0  0  0
   -7.3570   34.1210  -12.2930 O   0  0  0  0  0  0  0  0  0  0  0  0
   -7.2920   34.6620  -13.0720 H   0  0  0  0  0  0  0  0  0  0  0  0
  1  2  2  0  0  0  0
  1  6  1  0  0  0  0
  2  9  1  0  0  0  0
  2  3  1  0  0  0  0
  3  8  1  0  0  0  0
  3  4  2  0  0  0  0
  4 10  1  0  0  0  0
  4  5  1  0  0  0  0
  5  6  2  0  0  0  0
  5  7  1  0  0  0  0
 10 11  1  0  0  0  0
M  END
>  <MODEL>
1

>  <REMARK>
 VINA RESULT:    -5.896      0.000      0.000
 INTER + INTRA:          -6.068
 INTER:                  -6.068
 INTRA:                   0.000
 UNBOUND:                 0.000
  1 active torsions:
  status: ('A' for Active; 'I' for Inactive)
    1  A    between atoms: C_4  and  O_7 

>  <COMPND>
    /home/daniil/Downloads/ml_docking_review/databases/Vina/outputs/6ZT2_QPK/6ZT2_QPK.pdbqt 

>  <AUTHOR>
    GENERATED BY OPEN BABEL 3.2.1

>  <MASTER>
        0    0    0    0    0    0    0    0   11    0   11    0

$$$$
