../../databases/Vina/outputs/7UTW_NAI/7UTW_NAI1.pdb
 OpenBabel08242616453D

 51 55  0  0  1  0  0  0  0  0999 V2000
   30.9480   -4.6310  -38.9870 P   0  0  1  0  0  0  0  0  0  0  0  0
   32.0040   -5.2590  -38.1100 O   0  0  0  0  0  0  0  0  0  0  0  0
   30.9970   -4.8760  -40.4670 O   0  0  0  0  0  0  0  0  0  0  0  0
   29.5710   -5.1480  -38.3540 O   0  0  0  0  0  0  0  0  0  0  0  0
   28.0300   -4.9110  -38.8070 P   0  0  2  0  0  0  0  0  0  0  0  0
   27.7730   -5.5130  -40.1460 O   0  0  0  0  0  0  0  0  0  0  0  0
   27.6000   -3.5150  -38.5420 O   0  0  0  0  0  0  0  0  0  0  0  0
   27.3430   -5.9300  -37.7510 O   0  0  0  0  0  0  0  0  0  0  0  0
   28.1130   -6.2920  -36.5850 C   0  0  0  0  0  0  0  0  0  0  0  0
   27.6970   -7.7150  -36.1620 C   0  0  1  0  0  0  0  0  0  0  0  0
   26.3420   -7.9070  -36.3010 O   0  0  0  0  0  0  0  0  0  0  0  0
   26.1730   -9.2420  -37.0940 C   0  0  2  0  0  0  0  0  0  0  0  0
   27.3140   -9.2510  -37.8860 C   0  0  1  0  0  0  0  0  0  0  0  0
   28.4600   -8.8270  -36.9380 C   0  0  2  0  0  0  0  0  0  0  0  0
   24.8900   -9.0840  -37.7370 N   0  0  0  0  0  0  0  0  0  0  0  0
   24.7240   -8.1230  -38.7670 C   0  0  0  0  0  0  0  0  0  0  0  0
   23.3780   -7.8770  -39.2770 C   0  0  0  0  0  0  0  0  0  0  0  0
   22.2630   -8.8280  -38.9860 C   0  0  0  0  0  0  0  0  0  0  0  0
   22.4650   -9.5630  -37.6730 C   0  0  0  0  0  0  0  0  0  0  0  0
   23.8070   -9.7810  -37.1530 C   0  0  0  0  0  0  0  0  0  0  0  0
   21.2910  -10.2120  -37.0320 C   0  0  0  0  0  0  0  0  0  0  0  0
   21.4040  -10.6710  -35.9200 O   0  0  0  0  0  0  0  0  0  0  0  0
   20.1130  -10.3010  -37.8160 N   0  0  0  0  0  0  0  0  0  0  0  0
   27.5570  -10.5580  -38.4450 O   0  0  0  0  0  0  0  0  0  0  0  0
   28.4430  -10.8510  -38.2670 H   0  0  0  0  0  0  0  0  0  0  0  0
   28.7750   -9.9520  -36.1240 O   0  0  0  0  0  0  0  0  0  0  0  0
   28.0940  -10.1550  -35.4940 H   0  0  0  0  0  0  0  0  0  0  0  0
   30.9520   -3.0430  -38.7740 O   0  0  0  0  0  0  0  0  0  0  0  0
   31.1200   -2.2010  -39.8950 C   0  0  0  0  0  0  0  0  0  0  0  0
   32.5050   -1.4810  -39.7460 C   0  0  1  0  0  0  0  0  0  0  0  0
   32.7930   -1.4230  -38.4120 O   0  0  0  0  0  0  0  0  0  0  0  0
   34.3060   -1.5980  -38.3160 C   0  0  2  0  0  0  0  0  0  0  0  0
   34.6050   -2.5760  -39.2740 C   0  0  1  0  0  0  0  0  0  0  0  0
   33.6710   -2.2230  -40.4710 C   0  0  2  0  0  0  0  0  0  0  0  0
   34.5810   -1.9770  -36.9200 N   0  0  1  0  0  0  0  0  0  0  0  0
   35.7820   -1.8350  -36.3060 C   0  0  0  0  0  0  0  0  0  0  0  0
   35.6520   -2.2370  -35.0090 N   0  0  0  0  0  0  0  0  0  0  0  0
   34.3780   -2.6460  -34.8730 C   0  0  0  0  0  0  0  0  0  0  0  0
   36.3740   -2.2300  -34.2880 H   0  0  0  0  0  0  0  0  0  0  0  0
   33.7140   -2.5030  -36.0410 C   0  0  2  0  0  0  0  0  0  0  0  0
   33.6810   -3.1860  -33.8170 C   0  0  0  0  0  0  0  0  0  0  0  0
   32.4480   -2.8340  -36.2410 N   0  0  0  0  0  0  0  0  0  0  0  0
   31.7920   -3.3790  -35.1660 C   0  0  0  0  0  0  0  0  0  0  0  0
   31.9880   -2.6920  -37.1400 H   0  0  0  0  0  0  0  0  0  0  0  0
   32.4420   -3.5220  -33.9800 N   0  0  0  0  0  0  0  0  0  0  0  0
   31.9320   -3.9100  -33.1860 H   0  0  0  0  0  0  0  0  0  0  0  0
   34.1470   -3.4540  -32.4860 N   0  0  0  0  0  0  0  0  0  0  0  0
   36.0190   -2.5950  -39.6580 O   0  0  0  0  0  0  0  0  0  0  0  0
   36.1400   -2.5160  -40.5970 H   0  0  0  0  0  0  0  0  0  0  0  0
   34.2680   -1.4300  -41.4330 O   0  0  0  0  0  0  0  0  0  0  0  0
   34.9690   -1.8860  -41.8820 H   0  0  0  0  0  0  0  0  0  0  0  0
  1  3  2  6  0  0  0
  1 28  1  0  0  0  0
  1  4  1  0  0  0  0
  1  2  1  0  0  0  0
  4  5  1  0  0  0  0
  5  6  2  6  0  0  0
  5  7  1  0  0  0  0
  5  8  1  0  0  0  0
  8  9  1  0  0  0  0
 10  9  1  6  0  0  0
 10 14  1  0  0  0  0
 10 11  1  0  0  0  0
 11 12  1  0  0  0  0
 12 13  1  0  0  0  0
 12 15  1  6  0  0  0
 13 24  1  1  0  0  0
 13 14  1  0  0  0  0
 14 26  1  1  0  0  0
 15 16  1  0  0  0  0
 15 20  1  0  0  0  0
 16 17  1  0  0  0  0
 17 18  1  0  0  0  0
 18 19  1  0  0  0  0
 19 20  2  0  0  0  0
 19 21  1  0  0  0  0
 21 23  1  0  0  0  0
 21 22  2  0  0  0  0
 24 25  1  0  0  0  0
 26 27  1  0  0  0  0
 28 29  1  0  0  0  0
 30 29  1  1  0  0  0
 30 34  1  0  0  0  0
 30 31  1  0  0  0  0
 32 31  1  1  0  0  0
 32 33  1  0  0  0  0
 32 35  1  0  0  0  0
 33 34  1  0  0  0  0
 33 48  1  6  0  0  0
 34 50  1  6  0  0  0
 35 36  1  1  0  0  0
 35 40  1  0  0  0  0
 36 37  1  0  0  0  0
 37 38  1  0  0  0  0
 37 39  1  0  0  0  0
 38 41  2  0  0  0  0
 40 38  1  6  0  0  0
 40 42  1  0  0  0  0
 41 45  1  0  0  0  0
 41 47  1  0  0  0  0
 42 44  1  0  0  0  0
 42 43  1  0  0  0  0
 43 45  1  0  0  0  0
 45 46  1  0  0  0  0
 48 49  1  0  0  0  0
 50 51  1  0  0  0  0
M  END
>  <MODEL>
1

>  <REMARK>
 VINA RESULT:   -11.527      0.000      0.000
 INTER + INTRA:         -23.017
 INTER:                 -20.287
 INTRA:                  -2.729
 UNBOUND:                -2.729
  15 active torsions:
  status: ('A' for Active; 'I' for Inactive)
    1  A    between atoms: P_1  and  O_28 
    2  A    between atoms: P_1  and  O_4 
    3  A    between atoms: O_4  and  C_5 
    4  A    between atoms: C_5  and  C_6 
    5  A    between atoms: C_8  and  O_9 
    6  A    between atoms: C_11  and  O_12 
    7  A    between atoms: C_14  and  N_15 
    8  A    between atoms: O_28  and  P_29 
    9  A    between atoms: P_29  and  O_32 
   10  A    between atoms: O_32  and  C_33 
   11  A    between atoms: C_33  and  C_34 
   12  A    between atoms: C_36  and  O_37 
   13  A    between atoms: C_39  and  O_40 
   14  A    between atoms: C_42  and  N_43 
   15  A    between atoms: C_45  and  C_46 

>  <COMPND>
    /home/daniil/Downloads/ml_docking_review/databases/Vina/outputs/7UTW_NAI/7UTW_NAI.pdbqt 

>  <AUTHOR>
    GENERATED BY OPEN BABEL 3.2.1

>  <MASTER>
        0    0    0    0    0    0    0    0   51    0   51    0

$$$$
