../../databases/Vina/outputs/8AP0_PRP/8AP0_PRP1.pdb
 OpenBabel08242616453D

 24 24  0  0  1  0  0  0  0  0999 V2000
   11.2410   19.4210    9.1610 C   0  0  2  0  0  0  0  0  0  0  0  0
   11.9460   20.2250    8.1110 C   0  0  1  0  0  0  0  0  0  0  0  0
   10.7950   20.9190    7.4230 C   0  0  1  0  0  0  0  0  0  0  0  0
    9.6120   19.9500    7.5120 C   0  0  2  0  0  0  0  0  0  0  0  0
    9.9740   19.0700    8.5950 O   0  0  0  0  0  0  0  0  0  0  0  0
   11.1070   20.2960   10.3190 O   0  0  0  0  0  0  0  0  0  0  0  0
   10.0770   19.8140   11.4880 P   0  0  1  0  0  0  0  0  0  0  0  0
    9.9290   18.3030   11.6960 O   0  0  0  0  0  0  0  0  0  0  0  0
   10.5560   20.4920   12.7350 O   0  0  0  0  0  0  0  0  0  0  0  0
    8.5970   20.2890   11.0360 O   0  0  0  0  0  0  0  0  0  0  0  0
    8.0660   21.8660   11.2240 P   0  0  0  0  0  0  0  0  0  0  0  0
    6.9920   21.9070   10.1680 O   0  0  0  0  0  0  0  0  0  0  0  0
    9.2220   22.6450   10.6370 O   0  0  0  0  0  0  0  0  0  0  0  0
    7.6880   21.9110   12.7310 O   0  0  0  0  0  0  0  0  0  0  0  0
   12.7490   21.1730    8.8170 O   0  0  0  0  0  0  0  0  0  0  0  0
   13.6220   20.8010    8.8520 H   0  0  0  0  0  0  0  0  0  0  0  0
    9.3060   19.1710    6.2110 C   0  0  0  0  0  0  0  0  0  0  0  0
    8.7040   17.8810    6.4540 O   0  0  0  0  0  0  0  0  0  0  0  0
    7.1130   17.6510    6.4570 P   0  0  0  0  0  0  0  0  0  0  0  0
    6.5440   17.9930    5.0960 O   0  0  0  0  0  0  0  0  0  0  0  0
    7.0130   16.1470    6.8060 O   0  0  0  0  0  0  0  0  0  0  0  0
    6.5300   18.5180    7.5440 O   0  0  0  0  0  0  0  0  0  0  0  0
   10.6330   22.1200    8.2290 O   0  0  0  0  0  0  0  0  0  0  0  0
   10.1760   22.8220    7.7820 H   0  0  0  0  0  0  0  0  0  0  0  0
  1  2  1  0  0  0  0
  1  5  1  0  0  0  0
  1  6  1  1  0  0  0
  2  3  1  0  0  0  0
  2 15  1  1  0  0  0
  3  4  1  0  0  0  0
  3 23  1  1  0  0  0
  4 17  1  6  0  0  0
  4  5  1  0  0  0  0
  6  7  1  0  0  0  0
  7 10  1  0  0  0  0
  7  8  2  1  0  0  0
  7  9  1  0  0  0  0
 10 11  1  0  0  0  0
 11 12  2  0  0  0  0
 11 13  1  0  0  0  0
 11 14  1  0  0  0  0
 15 16  1  0  0  0  0
 17 18  1  0  0  0  0
 18 19  1  0  0  0  0
 19 20  2  0  0  0  0
 19 21  1  0  0  0  0
 19 22  1  0  0  0  0
 23 24  1  0  0  0  0
M  END
>  <MODEL>
1

>  <REMARK>
 VINA RESULT:    -9.377      0.000      0.000
 INTER + INTRA:         -14.660
 INTER:                 -13.763
 INTRA:                  -0.897
 UNBOUND:                -0.897
  9 active torsions:
  status: ('A' for Active; 'I' for Inactive)
    1  A    between atoms: C_1  and  O_6 
    2  A    between atoms: C_2  and  O_7 
    3  A    between atoms: C_3  and  O_9 
    4  A    between atoms: C_4  and  C_5 
    5  A    between atoms: C_5  and  O_12 
    6  A    between atoms: O_6  and  P_17 
    7  A    between atoms: O_12  and  P_13 
    8  A    between atoms: P_17  and  O_20 
    9  A    between atoms: O_20  and  P_21 

>  <COMPND>
    /home/daniil/Downloads/ml_docking_review/databases/Vina/outputs/8AP0_PRP/8AP0_PRP.pdbqt 

>  <AUTHOR>
    GENERATED BY OPEN BABEL 3.2.1

>  <MASTER>
        0    0    0    0    0    0    0    0   24    0   24    0

$$$$
