../../databases/Vina/outputs/7LOU_IFM/7LOU_IFM1.pdb
 OpenBabel08242616453D

 15 15  0  0  1  0  0  0  0  0999 V2000
  -17.8680   -0.4260   88.1420 C   0  0  1  0  0  0  0  0  0  0  0  0
  -17.8830   -1.7990   87.4780 C   0  0  1  0  0  0  0  0  0  0  0  0
  -16.6550   -2.5960   87.8840 C   0  0  0  0  0  0  0  0  0  0  0  0
  -15.4040   -1.8680   87.6020 N   0  0  0  0  0  4  0  0  0  0  0  0
  -15.2570   -1.7450   86.6000 H   0  0  0  0  0  0  0  0  0  0  0  0
  -14.5820   -2.4360   87.8100 H   0  0  0  0  0  0  0  0  0  0  0  0
  -15.3710   -0.5840   88.3170 C   0  0  0  0  0  0  0  0  0  0  0  0
  -16.5410    0.2780   87.8410 C   0  0  2  0  0  0  0  0  0  0  0  0
  -16.4700    1.6790   88.4150 C   0  0  0  0  0  0  0  0  0  0  0  0
  -17.7480    2.2980   88.4620 O   0  0  0  0  0  0  0  0  0  0  0  0
  -18.3640    1.7990   88.9870 H   0  0  0  0  0  0  0  0  0  0  0  0
  -18.9930    0.3650   87.7130 O   0  0  0  0  0  0  0  0  0  0  0  0
  -19.7330   -0.1900   87.4990 H   0  0  0  0  0  0  0  0  0  0  0  0
  -19.0240   -2.5400   87.8780 O   0  0  0  0  0  0  0  0  0  0  0  0
  -19.5620   -2.0360   88.4770 H   0  0  0  0  0  0  0  0  0  0  0  0
  1  2  1  0  0  0  0
  1 12  1  6  0  0  0
  1  8  1  0  0  0  0
  2 14  1  1  0  0  0
  2  3  1  0  0  0  0
  3  4  1  0  0  0  0
  4  5  1  0  0  0  0
  4  6  1  0  0  0  0
  4  7  1  0  0  0  0
  7  8  1  0  0  0  0
  8  9  1  1  0  0  0
  9 10  1  0  0  0  0
 10 11  1  0  0  0  0
 12 13  1  0  0  0  0
 14 15  1  0  0  0  0
M  END
>  <MODEL>
1

>  <REMARK>
 VINA RESULT:    -6.385      0.000      0.000
 INTER + INTRA:          -7.119
 INTER:                  -7.318
 INTRA:                   0.200
 UNBOUND:                 0.200
  4 active torsions:
  status: ('A' for Active; 'I' for Inactive)
    1  A    between atoms: O_1  and  C_3 
    2  A    between atoms: C_4  and  O_5 
    3  A    between atoms: C_12  and  C_13 
    4  A    between atoms: C_13  and  O_14 

>  <COMPND>
    /home/daniil/Downloads/ml_docking_review/databases/Vina/outputs/7LOU_IFM/7LOU_IFM.pdbqt 

>  <AUTHOR>
    GENERATED BY OPEN BABEL 3.2.1

>  <MASTER>
        0    0    0    0    0    0    0    0   15    0   15    0

$$$$
