../../databases/Vina/outputs/8SLG_G5A/8SLG_G5A1.pdb
 OpenBabel08242616453D

 38 40  0  0  1  0  0  0  0  0999 V2000
  -39.5430   45.6300   24.6090 C   0  0  1  0  0  0  0  0  0  0  0  0
  -40.1510   46.6610   25.5560 C   0  0  1  0  0  0  0  0  0  0  0  0
  -40.1150   45.9350   26.9010 C   0  0  1  0  0  0  0  0  0  0  0  0
  -38.8260   45.1210   26.7750 C   0  0  2  0  0  0  0  0  0  0  0  0
  -38.7990   44.7220   25.3850 O   0  0  0  0  0  0  0  0  0  0  0  0
  -40.5420   44.8830   23.8670 N   0  0  0  0  0  0  0  0  0  0  0  0
  -41.2310   43.7650   24.2540 C   0  0  0  0  0  0  0  0  0  0  0  0
  -42.0700   43.3440   23.3370 N   0  0  0  0  0  0  0  0  0  0  0  0
  -41.9220   44.2440   22.2910 C   0  0  0  0  0  0  0  0  0  0  0  0
  -42.6920   42.5370   23.3830 H   0  0  0  0  0  0  0  0  0  0  0  0
  -42.5330   44.3470   21.0290 C   0  0  2  0  0  0  0  0  0  0  0  0
  -40.9840   45.1940   22.6130 C   0  0  0  0  0  0  0  0  0  0  0  0
  -43.4560   43.5060   20.5790 N   0  0  0  0  0  0  0  0  0  0  0  0
  -42.1400   45.3690   20.2380 N   0  0  0  0  0  0  0  0  0  0  0  0
  -43.7530   42.7340   21.1770 H   0  0  0  0  0  0  0  0  0  0  0  0
  -43.8990   43.5800   19.6640 H   0  0  0  0  0  0  0  0  0  0  0  0
  -41.2130   46.2180   20.6900 C   0  0  0  0  0  0  0  0  0  0  0  0
  -42.5450   45.4910   19.3090 H   0  0  0  0  0  0  0  0  0  0  0  0
  -40.5770   46.2200   21.8530 N   0  0  0  0  0  0  0  0  0  0  0  0
  -39.8750   46.9080   22.1310 H   0  0  0  0  0  0  0  0  0  0  0  0
  -39.3820   47.8390   25.5600 O   0  0  0  0  0  0  0  0  0  0  0  0
  -38.8460   47.8890   24.7770 H   0  0  0  0  0  0  0  0  0  0  0  0
  -40.0510   46.8450   27.9880 O   0  0  0  0  0  0  0  0  0  0  0  0
  -40.7350   46.6810   28.6270 H   0  0  0  0  0  0  0  0  0  0  0  0
  -38.7390   43.8930   27.6470 C   0  0  0  0  0  0  0  0  0  0  0  0
  -39.6970   42.8950   27.1790 O   0  0  0  0  0  0  0  0  0  0  0  0
  -39.9550   41.6540   28.0980 S   0  0  0  0  0  0  0  0  0  0  0  0
  -41.2910   41.2870   27.8380 O   0  0  0  0  0  0  0  0  0  0  0  0
  -38.9270   40.6920   28.0210 O   0  0  0  0  0  0  0  0  0  0  0  0
  -39.9210   42.2650   29.5990 N   0  0  0  0  0  0  0  0  0  0  0  0
  -39.4390   41.6220   30.6540 C   0  0  0  0  0  0  0  0  0  0  0  0
  -38.9340   40.5140   30.5830 O   0  0  0  0  0  0  0  0  0  0  0  0
  -40.2940   43.2040   29.7420 H   0  0  0  0  0  0  0  0  0  0  0  0
  -39.5340   42.3500   31.9640 C   0  0  0  0  0  0  0  0  0  0  0  0
  -38.3600   42.0460   32.7860 N   0  0  0  0  0  4  0  0  0  0  0  0
  -38.6110   41.5750   33.6550 H   0  0  0  0  0  0  0  0  0  0  0  0
  -37.7870   41.3070   32.3780 H   0  0  0  0  0  0  0  0  0  0  0  0
  -37.8260   42.8990   32.9520 H   0  0  0  0  0  0  0  0  0  0  0  0
  1  6  1  1  0  0  0
  1  5  1  0  0  0  0
  1  2  1  0  0  0  0
  2 21  1  1  0  0  0
  2  3  1  0  0  0  0
  3  4  1  0  0  0  0
  3 23  1  1  0  0  0
  4  5  1  0  0  0  0
  4 25  1  1  0  0  0
  6 12  1  0  0  0  0
  6  7  1  0  0  0  0
  7  8  1  0  0  0  0
  8  9  1  0  0  0  0
  8 10  1  0  0  0  0
  9 11  1  0  0  0  0
  9 12  2  0  0  0  0
 11 14  1  0  0  0  0
 11 13  1  6  0  0  0
 12 19  1  0  0  0  0
 13 16  1  0  0  0  0
 13 15  1  0  0  0  0
 14 18  1  0  0  0  0
 14 17  1  0  0  0  0
 17 19  1  0  0  0  0
 19 20  1  0  0  0  0
 21 22  1  0  0  0  0
 23 24  1  0  0  0  0
 25 26  1  0  0  0  0
 26 27  1  0  0  0  0
 27 28  1  0  0  0  0
 27 29  1  0  0  0  0
 27 30  1  0  0  0  0
 30 33  1  0  0  0  0
 30 31  1  0  0  0  0
 31 32  2  0  0  0  0
 31 34  1  0  0  0  0
 34 35  1  0  0  0  0
 35 37  1  0  0  0  0
 35 38  1  0  0  0  0
 35 36  1  0  0  0  0
M  END
>  <MODEL>
1

>  <REMARK>
 VINA RESULT:   -10.707      0.000      0.000
 INTER + INTRA:         -15.697
 INTER:                 -15.401
 INTRA:                  -0.296
 UNBOUND:                -0.296
  9 active torsions:
  status: ('A' for Active; 'I' for Inactive)
    1  A    between atoms: C_1  and  C_23 
       I    between atoms: C_1  and  N_33 
    2  A    between atoms: N_2  and  C_23 
    3  A    between atoms: S_7  and  O_38 
    4  A    between atoms: S_7  and  N_33 
    5  A    between atoms: N_22  and  C_24 
    6  A    between atoms: C_26  and  O_27 
    7  A    between atoms: C_30  and  O_31 
    8  A    between atoms: C_35  and  C_37 
    9  A    between atoms: C_37  and  O_38 

>  <COMPND>
    /home/daniil/Downloads/ml_docking_review/databases/Vina/outputs/8SLG_G5A/8SLG_G5A.pdbqt 

>  <AUTHOR>
    GENERATED BY OPEN BABEL 3.2.1

>  <MASTER>
        0    0    0    0    0    0    0    0   38    0   38    0

$$$$
