../../databases/Vina/outputs/7JUD_MMA/7JUD_MMA1.pdb
 OpenBabel08242616453D

 17 17  0  0  1  0  0  0  0  0999 V2000
   -5.0500  -18.2540    5.6510 C   0  0  2  0  0  0  0  0  0  0  0  0
   -4.7050  -16.8030    5.3660 C   0  0  2  0  0  0  0  0  0  0  0  0
   -3.2410  -16.5620    5.4570 C   0  0  2  0  0  0  0  0  0  0  0  0
   -2.6930  -16.9860    6.7800 C   0  0  1  0  0  0  0  0  0  0  0  0
   -2.9800  -18.4700    7.0240 C   0  0  2  0  0  0  0  0  0  0  0  0
   -4.4260  -18.7230    6.9250 O   0  0  0  0  0  0  0  0  0  0  0  0
   -2.5290  -18.8790    8.4000 C   0  0  0  0  0  0  0  0  0  0  0  0
   -2.4970  -17.7540    9.2440 O   0  0  0  0  0  0  0  0  0  0  0  0
   -1.7120  -17.2480    9.0730 H   0  0  0  0  0  0  0  0  0  0  0  0
   -1.2870  -16.7160    6.7680 O   0  0  0  0  0  0  0  0  0  0  0  0
   -1.0290  -16.1680    7.5000 H   0  0  0  0  0  0  0  0  0  0  0  0
   -4.5720  -19.0090    4.6250 O   0  0  0  0  0  0  0  0  0  0  0  0
   -5.0450  -20.3420    4.5990 C   0  0  0  0  0  0  0  0  0  0  0  0
   -2.9800  -15.1410    5.2830 O   0  0  0  0  0  0  0  0  0  0  0  0
   -2.0790  -15.0320    5.0040 H   0  0  0  0  0  0  0  0  0  0  0  0
   -5.3870  -15.9780    6.3290 O   0  0  0  0  0  0  0  0  0  0  0  0
   -4.7910  -15.8010    7.0470 H   0  0  0  0  0  0  0  0  0  0  0  0
  1 12  1  6  0  0  0
  1  2  1  0  0  0  0
  1  6  1  0  0  0  0
  2  3  1  0  0  0  0
  2 16  1  1  0  0  0
  3 14  1  1  0  0  0
  3  4  1  0  0  0  0
  4 10  1  6  0  0  0
  4  5  1  0  0  0  0
  5  6  1  0  0  0  0
  5  7  1  1  0  0  0
  7  8  1  0  0  0  0
  8  9  1  0  0  0  0
 10 11  1  0  0  0  0
 12 13  1  0  0  0  0
 14 15  1  0  0  0  0
 16 17  1  0  0  0  0
M  END
>  <MODEL>
1

>  <REMARK>
 VINA RESULT:    -4.838      0.000      0.000
 INTER + INTRA:          -6.287
 INTER:                  -5.969
 INTRA:                  -0.318
 UNBOUND:                -0.318
  6 active torsions:
  status: ('A' for Active; 'I' for Inactive)
    1  A    between atoms: C_1  and  O_8 
    2  A    between atoms: C_2  and  O_9 
    3  A    between atoms: C_3  and  O_11 
    4  A    between atoms: C_4  and  O_13 
    5  A    between atoms: C_5  and  C_6 
    6  A    between atoms: C_6  and  O_16 

>  <COMPND>
    /home/daniil/Downloads/ml_docking_review/databases/Vina/outputs/7JUD_MMA/7JUD_MMA.pdbqt 

>  <AUTHOR>
    GENERATED BY OPEN BABEL 3.2.1

>  <MASTER>
        0    0    0    0    0    0    0    0   17    0   17    0

$$$$
