../../databases/Vina/outputs/7D5C_GV6/7D5C_GV61.pdb
 OpenBabel08242616453D

 41 43  0  0  1  0  0  0  0  0999 V2000
    9.0530    6.7150   37.5420 C   0  0  1  0  0  0  0  0  0  0  0  0
    9.2440    5.4550   38.3840 C   0  0  1  0  0  0  0  0  0  0  0  0
    8.3840    5.8240   39.5870 C   0  0  1  0  0  0  0  0  0  0  0  0
    8.7110    7.3070   39.7720 C   0  0  2  0  0  0  0  0  0  0  0  0
    9.0970    7.7900   38.4630 O   0  0  0  0  0  0  0  0  0  0  0  0
    9.8120    7.6140   40.7550 C   0  0  0  0  0  0  0  0  0  0  0  0
   11.0670    7.5960   40.0490 O   0  0  0  0  0  0  0  0  0  0  0  0
   12.4290    7.2340   40.7570 P   0  0  2  0  0  0  0  0  0  0  0  0
   12.9940    8.3770   41.4940 O   0  0  0  0  0  0  0  0  0  0  0  0
   13.2520    6.4960   39.7640 O   0  0  0  0  0  0  0  0  0  0  0  0
   11.9790    6.1600   41.9100 O   0  0  0  0  0  0  0  0  0  0  0  0
   11.6960    4.7690   41.8750 C   0  0  0  0  0  0  0  0  0  0  0  0
   11.4830    4.2230   40.8260 O   0  0  0  0  0  0  0  0  0  0  0  0
   11.6640    4.0360   43.2160 C   0  0  2  0  0  0  0  0  0  0  0  0
   10.2520    3.4940   43.5170 C   0  0  1  0  0  0  0  0  0  0  0  0
   10.1870    2.9520   44.9450 C   0  0  0  0  0  0  0  0  0  0  0  0
    9.1820    4.5640   43.2550 C   0  0  0  0  0  0  0  0  0  0  0  0
    7.7560    4.1050   43.4570 C   0  0  0  0  0  0  0  0  0  0  0  0
   12.2280    4.8630   44.2630 N   0  0  0  0  0  4  0  0  0  0  0  0
   12.2670    5.8370   43.9630 H   0  0  0  0  0  0  0  0  0  0  0  0
   11.5740    4.9450   45.0420 H   0  0  0  0  0  0  0  0  0  0  0  0
   13.1420    4.5600   44.5980 H   0  0  0  0  0  0  0  0  0  0  0  0
    7.0090    5.6650   39.2500 O   0  0  0  0  0  0  0  0  0  0  0  0
    6.9360    5.1230   38.4730 H   0  0  0  0  0  0  0  0  0  0  0  0
    8.7770    4.2840   37.7240 O   0  0  0  0  0  0  0  0  0  0  0  0
    9.2140    3.4980   38.0310 H   0  0  0  0  0  0  0  0  0  0  0  0
   10.0790    6.9230   36.5280 N   0  0  0  0  0  0  0  0  0  0  0  0
   11.4380    6.8310   36.6810 C   0  0  0  0  0  0  0  0  0  0  0  0
   12.1160    7.0210   35.5720 N   0  0  0  0  0  0  0  0  0  0  0  0
   11.1310    7.2600   34.6230 C   0  0  0  0  0  0  0  0  0  0  0  0
   13.1270    6.9990   35.4400 H   0  0  0  0  0  0  0  0  0  0  0  0
   11.1900    7.5530   33.2440 C   0  0  1  0  0  0  0  0  0  0  0  0
    9.8710    7.2000   35.1990 C   0  0  0  0  0  0  0  0  0  0  0  0
   10.0210    7.7360   32.5900 N   0  0  0  0  0  0  0  0  0  0  0  0
    8.8780    7.6510   33.2780 C   0  0  0  0  0  0  0  0  0  0  0  0
   10.0120    7.9360   31.5900 H   0  0  0  0  0  0  0  0  0  0  0  0
    8.6980    7.3870   34.5800 N   0  0  0  0  0  0  0  0  0  0  0  0
    7.7880    7.3350   35.0380 H   0  0  0  0  0  0  0  0  0  0  0  0
   12.3280    7.6810   32.5560 N   0  0  0  0  0  0  0  0  0  0  0  0
   13.0660    6.9930   32.7090 H   0  0  0  0  0  0  0  0  0  0  0  0
   12.5000    8.4170   31.8720 H   0  0  0  0  0  0  0  0  0  0  0  0
  1 27  1  6  0  0  0
  1  2  1  0  0  0  0
  1  5  1  0  0  0  0
  2 25  1  6  0  0  0
  2  3  1  0  0  0  0
  3 23  1  6  0  0  0
  3  4  1  0  0  0  0
  4  5  1  0  0  0  0
  4  6  1  1  0  0  0
  6  7  1  0  0  0  0
  7  8  1  0  0  0  0
  8 10  2  6  0  0  0
  8  9  1  0  0  0  0
  8 11  1  0  0  0  0
 11 12  1  0  0  0  0
 12 13  2  0  0  0  0
 14 12  1  6  0  0  0
 14 15  1  0  0  0  0
 14 19  1  0  0  0  0
 15 17  1  0  0  0  0
 15 16  1  1  0  0  0
 17 18  1  0  0  0  0
 19 20  1  0  0  0  0
 19 22  1  0  0  0  0
 19 21  1  0  0  0  0
 23 24  1  0  0  0  0
 25 26  1  0  0  0  0
 27 33  1  0  0  0  0
 27 28  1  0  0  0  0
 28 29  1  0  0  0  0
 29 30  1  0  0  0  0
 29 31  1  0  0  0  0
 30 32  1  0  0  0  0
 30 33  2  0  0  0  0
 32 39  1  1  0  0  0
 32 34  1  0  0  0  0
 33 37  1  0  0  0  0
 34 36  1  0  0  0  0
 34 35  1  0  0  0  0
 35 37  1  0  0  0  0
 37 38  1  0  0  0  0
 39 41  1  0  0  0  0
 39 40  1  0  0  0  0
M  END
>  <MODEL>
1

>  <REMARK>
 VINA RESULT:    -9.973      0.000      0.000
 INTER + INTRA:         -17.650
 INTER:                 -16.386
 INTRA:                  -1.264
 UNBOUND:                -1.264
  13 active torsions:
  status: ('A' for Active; 'I' for Inactive)
    1  A    between atoms: C_8  and  N_18 
    2  A    between atoms: N_9  and  C_13 
    3  A    between atoms: C_14  and  O_26 
    4  A    between atoms: C_15  and  O_28 
    5  A    between atoms: C_16  and  C_21 
    6  A    between atoms: C_21  and  O_22 
    7  A    between atoms: O_22  and  P_23 
    8  A    between atoms: P_23  and  O_25 
    9  A    between atoms: O_25  and  C_31 
   10  A    between atoms: C_31  and  C_32 
   11  A    between atoms: C_32  and  C_38 
   12  A    between atoms: C_32  and  N_34 
   13  A    between atoms: C_38  and  C_39 

>  <COMPND>
    /home/daniil/Downloads/ml_docking_review/databases/Vina/outputs/7D5C_GV6/7D5C_GV6.pdbqt 

>  <AUTHOR>
    GENERATED BY OPEN BABEL 3.2.1

>  <MASTER>
        0    0    0    0    0    0    0    0   41    0   41    0

$$$$
