../../databases/Vina/outputs/7RC3_SAH/7RC3_SAH1.pdb
 OpenBabel08242616453D

 36 38  0  0  1  0  0  0  0  0999 V2000
  -44.3470   15.1170    7.6770 C   0  0  1  0  0  0  0  0  0  0  0  0
  -43.8250   13.8660    7.2650 O   0  0  0  0  0  0  0  0  0  0  0  0
  -44.0790   15.1500    9.1800 C   0  0  2  0  0  0  0  0  0  0  0  0
  -43.3780   13.8230    9.4830 C   0  0  2  0  0  0  0  0  0  0  0  0
  -43.8560   12.9420    8.3570 C   0  0  2  0  0  0  0  0  0  0  0  0
  -42.9640   11.8860    7.8970 N   0  0  0  0  0  0  0  0  0  0  0  0
  -41.5960   11.9340    7.7980 C   0  0  0  0  0  0  0  0  0  0  0  0
  -41.1710   10.7830    7.2210 N   0  0  0  0  0  0  0  0  0  0  0  0
  -42.2490   10.0150    6.9300 C   0  0  0  0  0  0  0  0  0  0  0  0
  -40.1990   10.5360    7.0370 H   0  0  0  0  0  0  0  0  0  0  0  0
  -42.3890    8.7720    6.3220 C   0  0  2  0  0  0  0  0  0  0  0  0
  -43.3840   10.7030    7.3460 C   0  0  0  0  0  0  0  0  0  0  0  0
  -43.6510    8.2600    6.1720 N   0  0  0  0  0  0  0  0  0  0  0  0
  -41.3290    8.0870    5.9030 N   0  0  0  0  0  0  0  0  0  0  0  0
  -44.7660    8.9480    6.6040 C   0  0  0  0  0  0  0  0  0  0  0  0
  -43.7690    7.3480    5.7320 H   0  0  0  0  0  0  0  0  0  0  0  0
  -44.6240   10.1910    7.1970 N   0  0  0  0  0  0  0  0  0  0  0  0
  -45.4420   10.7100    7.5150 H   0  0  0  0  0  0  0  0  0  0  0  0
  -41.4320    7.1740    5.4570 H   0  0  0  0  0  0  0  0  0  0  0  0
  -40.3900    8.4670    6.0150 H   0  0  0  0  0  0  0  0  0  0  0  0
  -43.6880   13.2130   10.7110 O   0  0  0  0  0  0  0  0  0  0  0  0
  -43.0120   12.5800   10.9260 H   0  0  0  0  0  0  0  0  0  0  0  0
  -43.6790   16.2280    6.8680 C   0  0  0  0  0  0  0  0  0  0  0  0
  -44.4100   17.8870    7.0650 S   0  0  0  0  0  0  0  0  0  0  0  0
  -46.1670   17.4360    7.1910 C   0  0  0  0  0  0  0  0  0  0  0  0
  -47.0320   18.3060    6.2750 C   0  0  0  0  0  0  0  0  0  0  0  0
  -48.5500   18.1850    6.4770 C   0  0  2  0  0  0  0  0  0  0  0  0
  -49.2850   18.2860    5.2140 N   0  0  0  0  0  4  0  0  0  0  0  0
  -49.0700   17.5150    4.5840 H   0  0  0  0  0  0  0  0  0  0  0  0
  -50.2820   18.1060    5.3350 H   0  0  0  0  0  0  0  0  0  0  0  0
  -49.1100   19.1940    4.7830 H   0  0  0  0  0  0  0  0  0  0  0  0
  -49.0440   19.2440    7.4480 C   0  0  0  0  0  0  0  0  0  0  0  0
  -48.7530   20.4320    7.2580 O   0  0  0  0  0  0  0  0  0  0  0  0
  -49.7190   18.9270    8.4450 O   0  0  0  0  0  0  0  0  0  0  0  0
  -45.3200   15.2310    9.8660 O   0  0  0  0  0  0  0  0  0  0  0  0
  -46.0030   15.4480    9.2410 H   0  0  0  0  0  0  0  0  0  0  0  0
  1 23  1  6  0  0  0
  1  2  1  0  0  0  0
  1  3  1  0  0  0  0
  2  5  1  0  0  0  0
  3  4  1  0  0  0  0
  3 35  1  1  0  0  0
  4  5  1  0  0  0  0
  4 21  1  1  0  0  0
  5  6  1  6  0  0  0
  6 12  1  0  0  0  0
  6  7  1  0  0  0  0
  7  8  1  0  0  0  0
  8  9  1  0  0  0  0
  8 10  1  0  0  0  0
  9 11  1  0  0  0  0
  9 12  2  0  0  0  0
 11 14  1  1  0  0  0
 11 13  1  0  0  0  0
 12 17  1  0  0  0  0
 13 16  1  0  0  0  0
 13 15  1  0  0  0  0
 14 19  1  0  0  0  0
 14 20  1  0  0  0  0
 15 17  1  0  0  0  0
 17 18  1  0  0  0  0
 21 22  1  0  0  0  0
 23 24  1  0  0  0  0
 24 25  1  0  0  0  0
 25 26  1  0  0  0  0
 27 26  1  6  0  0  0
 27 28  1  0  0  0  0
 27 32  1  0  0  0  0
 28 29  1  0  0  0  0
 28 31  1  0  0  0  0
 28 30  1  0  0  0  0
 32 33  2  0  0  0  0
 32 34  1  0  0  0  0
 35 36  1  0  0  0  0
M  END
>  <MODEL>
1

>  <REMARK>
 VINA RESULT:    -9.171      0.000      0.000
 INTER + INTRA:         -14.414
 INTER:                 -13.728
 INTRA:                  -0.685
 UNBOUND:                -0.685
  10 active torsions:
  status: ('A' for Active; 'I' for Inactive)
    1  A    between atoms: N_1  and  C_5 
    2  A    between atoms: C_5  and  C_9 
    3  A    between atoms: C_5  and  C_6 
    4  A    between atoms: C_6  and  C_7 
    5  A    between atoms: C_7  and  S_8 
    6  A    between atoms: S_8  and  C_12 
    7  A    between atoms: C_12  and  C_13 
    8  A    between atoms: C_15  and  O_16 
    9  A    between atoms: C_18  and  O_19 
   10  A    between atoms: C_21  and  N_22 

>  <COMPND>
    /home/daniil/Downloads/ml_docking_review/databases/Vina/outputs/7RC3_SAH/7RC3_SAH.pdbqt 

>  <AUTHOR>
    GENERATED BY OPEN BABEL 3.2.1

>  <MASTER>
        0    0    0    0    0    0    0    0   36    0   36    0

$$$$
