../../databases/Vina/outputs/7LZQ_YJV/7LZQ_YJV1.pdb
 OpenBabel08242616453D

 24 26  0  0  0  0  0  0  0  0999 V2000
  -10.3790   -3.9220  -12.7670 C   0  0  0  0  0  0  0  0  0  0  0  0
  -11.4240   -3.0930  -13.1750 N   0  0  0  0  0  0  0  0  0  0  0  0
  -11.5920   -2.5320  -14.4550 C   0  0  0  0  0  0  0  0  0  0  0  0
  -12.7520   -1.7990  -14.4910 C   0  0  0  0  0  0  0  0  0  0  0  0
  -13.3220   -1.9170  -13.2150 C   0  0  0  0  0  0  0  0  0  0  0  0
  -12.4990   -2.6970  -12.4060 C   0  0  0  0  0  0  0  0  0  0  0  0
  -14.5560   -1.3470  -12.7780 C   0  0  0  0  0  0  0  0  0  0  0  0
  -12.8810   -2.9380  -11.0690 C   0  0  0  0  0  0  0  0  0  0  0  0
  -14.0490   -2.3890  -10.6150 C   0  0  0  0  0  0  0  0  0  0  0  0
  -14.8720   -1.6030  -11.4060 N   0  0  0  0  0  0  0  0  0  0  0  0
  -16.1560   -1.0210  -10.8730 C   0  0  0  0  0  0  0  0  0  0  0  0
  -15.2700   -0.6260  -13.4730 O   0  0  0  0  0  0  0  0  0  0  0  0
  -10.1610   -5.1820  -13.5390 C   0  0  0  0  0  0  0  0  0  0  0  0
   -8.9630   -5.3210  -14.2130 N   0  0  0  0  0  0  0  0  0  0  0  0
   -8.3030   -4.5490  -14.1170 H   0  0  0  0  0  0  0  0  0  0  0  0
  -11.0030   -6.0340  -13.5440 O   0  0  0  0  0  0  0  0  0  0  0  0
   -8.5540   -6.3720  -14.9970 C   0  0  0  0  0  0  0  0  0  0  0  0
   -7.8080   -7.3740  -14.4030 C   0  0  0  0  0  0  0  0  0  0  0  0
   -7.3320   -8.4510  -15.1410 C   0  0  0  0  0  0  0  0  0  0  0  0
   -7.3580   -7.3730  -12.7480 Cl  0  0  0  0  0  0  0  0  0  0  0  0
   -7.5670   -8.5920  -16.4740 N   0  0  0  0  0  0  0  0  0  0  0  0
   -8.3170   -7.5910  -17.1090 C   0  0  0  0  0  0  0  0  0  0  0  0
   -7.2120   -9.3960  -16.9920 H   0  0  0  0  0  0  0  0  0  0  0  0
   -8.8120   -6.4920  -16.4160 C   0  0  0  0  0  0  0  0  0  0  0  0
  1 13  1  0  0  0  0
  1  2  1  0  0  0  0
  2  3  1  0  0  0  0
  2  6  1  0  0  0  0
  3  4  2  0  0  0  0
  4  5  1  0  0  0  0
  5  7  1  0  0  0  0
  5  6  2  0  0  0  0
  6  8  1  0  0  0  0
  7 12  2  0  0  0  0
  7 10  1  0  0  0  0
  8  9  2  0  0  0  0
  9 10  1  0  0  0  0
 10 11  1  0  0  0  0
 13 14  1  0  0  0  0
 13 16  2  0  0  0  0
 14 17  1  0  0  0  0
 14 15  1  0  0  0  0
 17 24  1  0  0  0  0
 17 18  2  0  0  0  0
 18 19  1  0  0  0  0
 18 20  1  0  0  0  0
 19 21  1  0  0  0  0
 21 22  1  0  0  0  0
 21 23  1  0  0  0  0
 22 24  2  0  0  0  0
M  END
>  <MODEL>
1

>  <REMARK>
 VINA RESULT:    -5.908      0.000      0.000
 INTER + INTRA:          -7.456
 INTER:                  -6.944
 INTRA:                  -0.511
 UNBOUND:                -0.511
  3 active torsions:
  status: ('A' for Active; 'I' for Inactive)
    1  A    between atoms: N_8  and  C_9 
    2  A    between atoms: C_9  and  C_10 
       I    between atoms: C_10  and  N_20 
    3  A    between atoms: C_16  and  N_20 

>  <COMPND>
    /home/daniil/Downloads/ml_docking_review/databases/Vina/outputs/7LZQ_YJV/7LZQ_YJV.pdbqt 

>  <AUTHOR>
    GENERATED BY OPEN BABEL 3.2.1

>  <MASTER>
        0    0    0    0    0    0    0    0   24    0   24    0

$$$$
