../../databases/Vina/outputs/7WCF_ACP/7WCF_ACP1.pdb
 OpenBabel08242616453D

 36 38  0  0  1  0  0  0  0  0999 V2000
    6.6770  -24.0340  -19.1960 C   0  0  1  0  0  0  0  0  0  0  0  0
    7.6480  -24.3350  -20.0560 O   0  0  0  0  0  0  0  0  0  0  0  0
    7.3390  -23.1800  -18.0900 C   0  0  2  0  0  0  0  0  0  0  0  0
    8.7190  -23.8520  -18.0200 C   0  0  2  0  0  0  0  0  0  0  0  0
    9.0310  -24.1610  -19.2800 C   0  0  2  0  0  0  0  0  0  0  0  0
    5.5610  -23.2440  -19.9160 C   0  0  0  0  0  0  0  0  0  0  0  0
    5.7900  -21.8800  -19.6460 O   0  0  0  0  0  0  0  0  0  0  0  0
    4.9610  -20.7700  -20.4880 P   0  0  1  0  0  0  0  0  0  0  0  0
    3.8450  -21.4510  -21.2310 O   0  0  0  0  0  0  0  0  0  0  0  0
    4.5090  -19.7260  -19.5140 O   0  0  0  0  0  0  0  0  0  0  0  0
    6.0980  -20.2460  -21.5370 O   0  0  0  0  0  0  0  0  0  0  0  0
    6.0200  -19.7800  -23.0860 P   0  0  1  0  0  0  0  0  0  0  0  0
    7.1850  -18.9080  -23.4750 O   0  0  0  0  0  0  0  0  0  0  0  0
    5.8830  -21.0720  -23.8390 O   0  0  0  0  0  0  0  0  0  0  0  0
    4.6860  -18.6070  -23.3350 C   0  0  0  0  0  0  0  0  0  0  0  0
    4.2960  -18.2320  -25.0620 P   0  0  0  0  0  0  0  0  0  0  0  0
    4.0360  -19.5470  -25.7510 O   0  0  0  0  0  0  0  0  0  0  0  0
    2.9720  -17.5420  -24.9580 O   0  0  0  0  0  0  0  0  0  0  0  0
    5.3660  -17.4460  -25.7680 O   0  0  0  0  0  0  0  0  0  0  0  0
    6.6700  -23.1790  -16.8800 O   0  0  0  0  0  0  0  0  0  0  0  0
    6.1720  -22.3840  -16.7270 H   0  0  0  0  0  0  0  0  0  0  0  0
    8.5690  -25.0940  -17.2050 O   0  0  0  0  0  0  0  0  0  0  0  0
    8.9820  -25.8010  -17.6870 H   0  0  0  0  0  0  0  0  0  0  0  0
    9.7660  -23.1310  -19.9900 N   0  0  0  0  0  0  0  0  0  0  0  0
    9.2680  -22.0560  -20.6380 C   0  0  0  0  0  0  0  0  0  0  0  0
   10.2790  -21.3570  -21.1600 N   0  0  0  0  0  0  0  0  0  0  0  0
   11.4200  -22.0090  -20.8520 C   0  0  0  0  0  0  0  0  0  0  0  0
   10.2020  -20.4910  -21.6920 H   0  0  0  0  0  0  0  0  0  0  0  0
   12.7410  -21.7580  -21.1590 C   0  0  1  0  0  0  0  0  0  0  0  0
   11.0950  -23.1050  -20.1530 C   0  0  0  0  0  0  0  0  0  0  0  0
   13.2060  -20.6350  -21.9300 N   0  0  0  0  0  0  0  0  0  0  0  0
   13.6860  -22.5890  -20.7290 N   0  0  0  0  0  0  0  0  0  0  0  0
   13.3410  -23.6750  -20.0100 C   0  0  0  0  0  0  0  0  0  0  0  0
   14.6670  -22.4050  -20.9420 H   0  0  0  0  0  0  0  0  0  0  0  0
   12.0520  -23.9430  -19.7080 N   0  0  0  0  0  0  0  0  0  0  0  0
   11.8070  -24.7640  -19.1550 H   0  0  0  0  0  0  0  0  0  0  0  0
  1  2  1  0  0  0  0
  1  6  1  6  0  0  0
  1  3  1  0  0  0  0
  2  5  1  0  0  0  0
  3  4  1  0  0  0  0
  3 20  1  1  0  0  0
  4  5  1  0  0  0  0
  4 22  1  1  0  0  0
  5 24  1  6  0  0  0
  6  7  1  0  0  0  0
  7  8  1  0  0  0  0
  8 11  1  0  0  0  0
  8  9  2  6  0  0  0
  8 10  1  0  0  0  0
 11 12  1  0  0  0  0
 12 14  2  6  0  0  0
 12 13  1  0  0  0  0
 12 15  1  0  0  0  0
 15 16  1  0  0  0  0
 16 19  2  0  0  0  0
 16 17  1  0  0  0  0
 16 18  1  0  0  0  0
 20 21  1  0  0  0  0
 22 23  1  0  0  0  0
 24 25  1  0  0  0  0
 24 30  1  0  0  0  0
 25 26  1  0  0  0  0
 26 28  1  0  0  0  0
 26 27  1  0  0  0  0
 27 29  1  0  0  0  0
 27 30  2  0  0  0  0
 29 31  1  1  0  0  0
 29 32  1  0  0  0  0
 30 35  1  0  0  0  0
 32 34  1  0  0  0  0
 32 33  1  0  0  0  0
 33 35  1  0  0  0  0
 35 36  1  0  0  0  0
M  END
>  <MODEL>
1

>  <REMARK>
 VINA RESULT:    -8.985      0.000      0.000
 INTER + INTRA:         -14.871
 INTER:                 -13.712
 INTRA:                  -1.158
 UNBOUND:                -1.158
  10 active torsions:
  status: ('A' for Active; 'I' for Inactive)
    1  A    between atoms: P_1  and  C_8 
    2  A    between atoms: P_5  and  C_8 
    3  A    between atoms: P_5  and  O_12 
    4  A    between atoms: P_9  and  O_12 
    5  A    between atoms: P_9  and  O_13 
    6  A    between atoms: O_13  and  C_14 
    7  A    between atoms: C_14  and  C_15 
    8  A    between atoms: C_17  and  O_18 
    9  A    between atoms: C_20  and  O_21 
   10  A    between atoms: C_23  and  N_24 

>  <COMPND>
    /home/daniil/Downloads/ml_docking_review/databases/Vina/outputs/7WCF_ACP/7WCF_ACP.pdbqt 

>  <AUTHOR>
    GENERATED BY OPEN BABEL 3.2.1

>  <MASTER>
        0    0    0    0    0    0    0    0   36    0   36    0

$$$$
