../../databases/Vina/outputs/5S8I_2LY/5S8I_2LY1.pdb
 OpenBabel08242616453D

 14 15  0  0  0  0  0  0  0  0999 V2000
  -19.6920   13.3750   25.8700 C   0  0  0  0  0  0  0  0  0  0  0  0
  -21.0320   12.8440   25.9440 C   0  0  0  0  0  0  0  0  0  0  0  0
  -21.6910   13.2060   27.1630 C   0  0  0  0  0  0  0  0  0  0  0  0
  -20.8850   13.9200   28.0120 C   0  0  0  0  0  0  0  0  0  0  0  0
  -19.3390   14.2820   27.2920 S   0  0  0  0  0  0  0  0  0  0  0  0
  -23.0110   12.8790   27.4200 O   0  0  0  0  0  0  0  0  0  0  0  0
  -23.7050   12.4980   26.2020 C   0  0  0  0  0  0  0  0  0  0  0  0
  -22.9110   11.5470   25.3750 C   0  0  0  0  0  0  0  0  0  0  0  0
  -21.6440   12.1040   24.9390 O   0  0  0  0  0  0  0  0  0  0  0  0
  -18.6930   13.3020   24.7880 C   0  0  0  0  0  0  0  0  0  0  0  0
  -18.1160   14.3270   24.3870 O   0  0  0  0  0  0  0  0  0  0  0  0
  -18.5490   12.0790   24.2600 N   0  0  0  0  0  0  0  0  0  0  0  0
  -17.8580   11.7790   23.0090 C   0  0  0  0  0  0  0  0  0  0  0  0
  -18.9550   11.2960   24.7720 H   0  0  0  0  0  0  0  0  0  0  0  0
  1 10  1  0  0  0  0
  1  2  2  0  0  0  0
  1  5  1  0  0  0  0
  2  9  1  0  0  0  0
  2  3  1  0  0  0  0
  3  6  1  0  0  0  0
  3  4  2  0  0  0  0
  4  5  1  0  0  0  0
  6  7  1  0  0  0  0
  7  8  1  0  0  0  0
  8  9  1  0  0  0  0
 10 12  1  0  0  0  0
 10 11  2  0  0  0  0
 12 13  1  0  0  0  0
 12 14  1  0  0  0  0
M  END
>  <MODEL>
1

>  <REMARK>
 VINA RESULT:    -6.009      0.000      0.000
 INTER + INTRA:          -6.653
 INTER:                  -6.361
 INTRA:                  -0.292
 UNBOUND:                -0.292
  1 active torsions:
  status: ('A' for Active; 'I' for Inactive)
       I    between atoms: N_2  and  C_4 
    1  A    between atoms: C_4  and  C_5 

>  <COMPND>
    /home/daniil/Downloads/ml_docking_review/databases/Vina/outputs/5S8I_2LY/5S8I_2LY.pdbqt 

>  <AUTHOR>
    GENERATED BY OPEN BABEL 3.2.1

>  <MASTER>
        0    0    0    0    0    0    0    0   14    0   14    0

$$$$
