../../databases/Vina/outputs/7L7C_XQ1/7L7C_XQ11.pdb
 OpenBabel08242616453D

 21 23  0  0  0  0  0  0  0  0999 V2000
   18.5730  -12.0820    3.1680 C   0  0  0  0  0  0  0  0  0  0  0  0
   18.7970  -11.1480    2.1670 C   0  0  0  0  0  0  0  0  0  0  0  0
   19.5070  -12.3040    4.1950 C   0  0  0  0  0  0  0  0  0  0  0  0
   20.5750   -9.3970    1.3280 C   0  0  0  0  0  0  0  0  0  0  0  0
   21.7600   -9.1170    1.8920 C   0  0  0  0  0  0  0  0  0  0  0  0
   20.8810  -10.6310    3.2030 C   0  0  0  0  0  0  0  0  0  0  0  0
   20.6890  -11.5530    4.2050 C   0  0  0  0  0  0  0  0  0  0  0  0
   19.9790  -10.4030    2.1760 C   0  0  0  0  0  0  0  0  0  0  0  0
   21.9930   -9.8400    3.0390 O   0  0  0  0  0  0  0  0  0  0  0  0
   19.2700  -13.3220    5.2490 C   0  0  0  0  0  0  0  0  0  0  0  0
   19.5850  -13.0630    6.5840 C   0  0  0  0  0  0  0  0  0  0  0  0
   19.4370  -14.0450    7.5500 C   0  0  0  0  0  0  0  0  0  0  0  0
   18.9490  -15.2970    7.2040 C   0  0  0  0  0  0  0  0  0  0  0  0
   18.5940  -15.5460    5.8790 C   0  0  0  0  0  0  0  0  0  0  0  0
   18.7570  -14.5740    4.9090 C   0  0  0  0  0  0  0  0  0  0  0  0
   17.9970  -16.7380    5.5270 O   0  0  0  0  0  0  0  0  0  0  0  0
   17.9690  -17.0910    4.1350 C   0  0  0  0  0  0  0  0  0  0  0  0
   19.9920   -8.7870    0.0960 C   0  0  0  0  0  0  0  0  0  0  0  0
   19.1290   -7.5920    0.3950 C   0  0  0  0  0  0  0  0  0  0  0  0
   19.5840   -6.4810    0.3880 O   0  0  0  0  0  0  0  0  0  0  0  0
   17.8890   -7.8890    0.7290 O   0  0  0  0  0  0  0  0  0  0  0  0
  1  2  2  0  0  0  0
  1  3  1  0  0  0  0
  2  8  1  0  0  0  0
  3  7  2  0  0  0  0
  3 10  1  0  0  0  0
  4 18  1  0  0  0  0
  4  5  2  0  0  0  0
  4  8  1  0  0  0  0
  5  9  1  0  0  0  0
  6  8  2  0  0  0  0
  6  9  1  0  0  0  0
  6  7  1  0  0  0  0
 10 15  2  0  0  0  0
 10 11  1  0  0  0  0
 11 12  2  0  0  0  0
 12 13  1  0  0  0  0
 13 14  2  0  0  0  0
 14 15  1  0  0  0  0
 14 16  1  0  0  0  0
 16 17  1  0  0  0  0
 18 19  1  0  0  0  0
 19 20  2  0  0  0  0
 19 21  1  0  0  0  0
M  END
>  <MODEL>
1

>  <REMARK>
 VINA RESULT:    -9.449      0.000      0.000
 INTER + INTRA:         -12.246
 INTER:                 -11.658
 INTRA:                  -0.588
 UNBOUND:                -0.588
  4 active torsions:
  status: ('A' for Active; 'I' for Inactive)
    1  A    between atoms: C_4  and  C_8 
    2  A    between atoms: C_6  and  O_10 
    3  A    between atoms: C_11  and  C_12 
    4  A    between atoms: C_12  and  C_13 

>  <COMPND>
    /home/daniil/Downloads/ml_docking_review/databases/Vina/outputs/7L7C_XQ1/7L7C_XQ1.pdbqt 

>  <AUTHOR>
    GENERATED BY OPEN BABEL 3.2.1

>  <MASTER>
        0    0    0    0    0    0    0    0   21    0   21    0

$$$$
