../../databases/Vina/outputs/7V8Z_5YH/7V8Z_5YH1.pdb
 OpenBabel08242612033D

 27 30  0  0  1  0  0  0  0  0999 V2000
   -7.4630   31.1170  -14.9370 C   0  0  0  0  0  0  0  0  0  0  0  0
   -9.7090   30.7800  -15.6870 C   0  0  0  0  0  0  0  0  0  0  0  0
  -10.0250   29.9530  -14.6360 C   0  0  0  0  0  0  0  0  0  0  0  0
   -7.7020   28.9780  -11.9200 C   0  0  0  0  0  0  0  0  0  0  0  0
   -7.3540   28.3030  -10.7050 C   0  0  0  0  0  0  0  0  0  0  0  0
   -8.3020   27.4950  -10.0680 C   0  0  0  0  0  0  0  0  0  0  0  0
   -9.9650   28.0370  -11.8270 C   0  0  0  0  0  0  0  0  0  0  0  0
   -7.7460   30.2500  -13.8280 C   0  0  0  0  0  0  0  0  0  0  0  0
   -8.4660   31.3980  -15.8940 C   0  0  0  0  0  0  0  0  0  0  0  0
   -9.0280   29.6510  -13.6920 C   0  0  0  0  0  0  0  0  0  0  0  0
   -9.0050   28.8480  -12.4750 C   0  0  0  0  0  0  0  0  0  0  0  0
   -9.5680   27.4100  -10.6590 C   0  0  0  0  0  0  0  0  0  0  0  0
  -10.7450   31.0460  -16.5690 F   0  0  0  0  0  0  0  0  0  0  0  0
  -10.5020   26.6160  -10.0320 F   0  0  0  0  0  0  0  0  0  0  0  0
   -6.9500   29.8250  -12.7650 N   0  0  0  0  0  0  0  0  0  0  0  0
   -5.5370   30.2420  -12.5440 C   0  0  0  0  0  0  0  0  0  0  0  0
   -5.5420   31.7140  -11.9420 C   0  0  1  0  0  0  0  0  0  0  0  0
   -5.7600   31.6280  -10.5340 O   0  0  0  0  0  0  0  0  0  0  0  0
   -6.4610   31.0080  -10.3740 H   0  0  0  0  0  0  0  0  0  0  0  0
   -4.1860   32.4620  -12.1150 C   0  0  0  0  0  0  0  0  0  0  0  0
   -3.9130   32.7250  -13.5130 N   0  0  0  0  0  0  0  0  0  0  0  0
   -4.6570   33.5370  -14.4150 C   0  0  0  0  0  0  0  0  0  0  0  0
   -5.6790   34.1470  -14.1280 O   0  0  0  0  0  0  0  0  0  0  0  0
   -4.0610   33.5390  -15.7110 N   0  0  0  0  0  0  0  0  0  0  0  0
   -2.8660   32.7130  -15.6900 C   0  0  0  0  0  0  0  0  0  0  0  0
   -4.4170   34.0410  -16.5240 H   0  0  0  0  0  0  0  0  0  0  0  0
   -2.7680   32.1640  -14.2360 C   0  0  0  0  0  0  0  0  0  0  0  0
  1  9  2  0  0  0  0
  1  8  1  0  0  0  0
  2 13  1  0  0  0  0
  2  9  1  0  0  0  0
  2  3  2  0  0  0  0
  3 10  1  0  0  0  0
  4 15  1  0  0  0  0
  4 11  2  0  0  0  0
  4  5  1  0  0  0  0
  5  6  2  0  0  0  0
  6 12  1  0  0  0  0
  7 11  1  0  0  0  0
  7 12  2  0  0  0  0
  8 10  2  0  0  0  0
  8 15  1  0  0  0  0
 10 11  1  0  0  0  0
 12 14  1  0  0  0  0
 15 16  1  0  0  0  0
 17 16  1  1  0  0  0
 17 20  1  0  0  0  0
 17 18  1  0  0  0  0
 18 19  1  0  0  0  0
 20 21  1  0  0  0  0
 21 22  1  0  0  0  0
 21 27  1  0  0  0  0
 22 24  1  0  0  0  0
 22 23  2  0  0  0  0
 24 26  1  0  0  0  0
 24 25  1  0  0  0  0
 25 27  2  0  0  0  0
M  END
>  <MODEL>
1

>  <REMARK>
 VINA RESULT:    -9.345      0.000      0.000
 INTER + INTRA:         -12.467
 INTER:                 -11.803
 INTRA:                  -0.664
 UNBOUND:                -0.664
  5 active torsions:
  status: ('A' for Active; 'I' for Inactive)
    1  A    between atoms: C_1  and  C_9 
    2  A    between atoms: C_1  and  N_24 
    3  A    between atoms: C_9  and  O_25 
    4  A    between atoms: C_9  and  C_10 
    5  A    between atoms: C_10  and  N_21 

>  <COMPND>
    /home/daniil/Downloads/ml_docking_review/databases/Vina/outputs/7V8Z_5YH/7V8Z_5YH.pdbqt 

>  <AUTHOR>
    GENERATED BY OPEN BABEL 3.2.1

>  <MASTER>
        0    0    0    0    0    0    0    0   27    0   27    0

$$$$
