../../databases/Vina/outputs/7W6F_8I6/7W6F_8I61.pdb
 OpenBabel08242616453D

 22 22  0  0  0  0  0  0  0  0999 V2000
   11.5120   12.1860   16.2680 C   0  0  0  0  0  0  0  0  0  0  0  0
   12.2760   14.4350   16.4820 C   0  0  0  0  0  0  0  0  0  0  0  0
   12.0930   13.1840   17.0410 C   0  0  0  0  0  0  0  0  0  0  0  0
   11.1110   12.4640   14.9800 C   0  0  0  0  0  0  0  0  0  0  0  0
   11.3020   13.7190   14.4490 C   0  0  0  0  0  0  0  0  0  0  0  0
   11.8850   14.7100   15.1950 C   0  0  0  0  0  0  0  0  0  0  0  0
   11.2540   10.7850   16.8070 C   0  0  0  0  0  0  0  0  0  0  0  0
   10.7950    9.8860   15.6540 C   0  0  0  0  0  0  0  0  0  0  0  0
    9.6390    8.9580   16.0350 C   0  0  0  0  0  0  0  0  0  0  0  0
    8.7080    8.6420   14.8630 C   0  0  0  0  0  0  0  0  0  0  0  0
    9.4400    7.9860   13.6800 C   0  0  0  0  0  0  0  0  0  0  0  0
    9.7300    6.5070   13.9290 C   0  0  0  0  0  0  0  0  0  0  0  0
    8.5230    5.7270   14.4460 C   0  0  0  0  0  0  0  0  0  0  0  0
    8.8620    5.2070   15.8400 C   0  0  0  0  0  0  0  0  0  0  0  0
    8.0640    3.9700   16.2380 C   0  0  0  0  0  0  0  0  0  0  0  0
   12.5750   12.9720   18.4720 C   0  0  0  0  0  0  0  0  0  0  0  0
   11.7550   12.6330   19.3650 O   0  0  0  0  0  0  0  0  0  0  0  0
   13.7750   13.1930   18.7750 O   0  0  0  0  0  0  0  0  0  0  0  0
   12.8550   15.4610   17.2120 O   0  0  0  0  0  0  0  0  0  0  0  0
   12.3270   16.1700   17.5590 H   0  0  0  0  0  0  0  0  0  0  0  0
   10.9040   13.9780   13.1440 O   0  0  0  0  0  0  0  0  0  0  0  0
   10.3480   14.7250   12.9580 H   0  0  0  0  0  0  0  0  0  0  0  0
  1  4  2  0  0  0  0
  1  7  1  0  0  0  0
  1  3  1  0  0  0  0
  2  6  1  0  0  0  0
  2  3  2  0  0  0  0
  2 19  1  0  0  0  0
  3 16  1  0  0  0  0
  4  5  1  0  0  0  0
  5 21  1  0  0  0  0
  5  6  2  0  0  0  0
  7  8  1  0  0  0  0
  8  9  1  0  0  0  0
  9 10  1  0  0  0  0
 10 11  1  0  0  0  0
 11 12  1  0  0  0  0
 12 13  1  0  0  0  0
 13 14  1  0  0  0  0
 14 15  1  0  0  0  0
 16 18  2  0  0  0  0
 16 17  1  0  0  0  0
 19 20  1  0  0  0  0
 21 22  1  0  0  0  0
M  END
>  <MODEL>
1

>  <REMARK>
 VINA RESULT:    -8.762      0.000      0.000
 INTER + INTRA:         -14.772
 INTER:                 -13.885
 INTRA:                  -0.887
 UNBOUND:                -0.887
  11 active torsions:
  status: ('A' for Active; 'I' for Inactive)
    1  A    between atoms: C_1  and  C_12 
    2  A    between atoms: C_2  and  O_19 
    3  A    between atoms: C_3  and  C_16 
    4  A    between atoms: C_5  and  C_6 
    5  A    between atoms: C_6  and  C_7 
    6  A    between atoms: C_7  and  C_8 
    7  A    between atoms: C_8  and  C_9 
    8  A    between atoms: C_9  and  C_10 
    9  A    between atoms: C_10  and  C_11 
   10  A    between atoms: C_11  and  C_12 
   11  A    between atoms: C_14  and  O_17 

>  <COMPND>
    /home/daniil/Downloads/ml_docking_review/databases/Vina/outputs/7W6F_8I6/7W6F_8I6.pdbqt 

>  <AUTHOR>
    GENERATED BY OPEN BABEL 3.2.1

>  <MASTER>
        0    0    0    0    0    0    0    0   22    0   22    0

$$$$
