../../databases/Vina/outputs/7OMJ_GCP/7OMJ_GCP1.pdb
 OpenBabel08242616453D

 37 39  0  0  1  0  0  0  0  0999 V2000
    2.8150  -11.2060   21.5810 C   0  0  1  0  0  0  0  0  0  0  0  0
    2.5490  -10.0000   21.0630 O   0  0  0  0  0  0  0  0  0  0  0  0
    3.8060  -11.8790   20.6230 C   0  0  2  0  0  0  0  0  0  0  0  0
    3.4580  -11.2260   19.2930 C   0  0  2  0  0  0  0  0  0  0  0  0
    3.0330  -10.0110   19.5060 C   0  0  2  0  0  0  0  0  0  0  0  0
    3.4110  -11.1330   23.0040 C   0  0  0  0  0  0  0  0  0  0  0  0
    4.6730  -10.5170   22.8810 O   0  0  0  0  0  0  0  0  0  0  0  0
    5.2040   -9.6320   24.1460 P   0  0  1  0  0  0  0  0  0  0  0  0
    6.4880   -8.9170   23.7740 O   0  0  0  0  0  0  0  0  0  0  0  0
    4.0820   -8.7610   24.6800 O   0  0  0  0  0  0  0  0  0  0  0  0
    5.5280  -10.8160   25.1610 O   0  0  0  0  0  0  0  0  0  0  0  0
    5.7580  -10.8030   26.7600 P   0  0  1  0  0  0  0  0  0  0  0  0
    6.1530   -9.4490   27.2320 O   0  0  0  0  0  0  0  0  0  0  0  0
    4.5410  -11.4580   27.3300 O   0  0  0  0  0  0  0  0  0  0  0  0
    7.2340  -11.8780   26.8060 C   0  0  0  0  0  0  0  0  0  0  0  0
    7.9430  -12.2730   28.4570 P   0  0  0  0  0  0  0  0  0  0  0  0
    7.0870  -13.3400   29.0720 O   0  0  0  0  0  0  0  0  0  0  0  0
    8.1070  -11.0200   29.2330 O   0  0  0  0  0  0  0  0  0  0  0  0
    9.2960  -12.9190   28.2920 O   0  0  0  0  0  0  0  0  0  0  0  0
    3.5960  -13.2270   20.6260 O   0  0  0  0  0  0  0  0  0  0  0  0
    2.7110  -13.4090   20.9190 H   0  0  0  0  0  0  0  0  0  0  0  0
    3.8770   -8.8250   19.4800 N   0  0  0  0  0  0  0  0  0  0  0  0
    5.0510   -8.6170   20.0950 C   0  0  0  0  0  0  0  0  0  0  0  0
    5.4670   -7.3560   19.8210 N   0  0  0  0  0  0  0  0  0  0  0  0
    4.4940   -6.7550   19.0770 C   0  0  0  0  0  0  0  0  0  0  0  0
    6.3470   -6.9330   20.1170 H   0  0  0  0  0  0  0  0  0  0  0  0
    4.3550   -5.4970   18.5270 C   0  0  0  0  0  0  0  0  0  0  0  0
    3.5320   -7.6810   18.8810 C   0  0  0  0  0  0  0  0  0  0  0  0
    3.2620   -5.2440   17.8370 N   0  0  0  0  0  0  0  0  0  0  0  0
    5.1330   -4.5770   18.6620 O   0  0  0  0  0  0  0  0  0  0  0  0
    2.3070   -6.1910   17.6540 C   0  0  1  0  0  0  0  0  0  0  0  0
    3.1310   -4.3170   17.4320 H   0  0  0  0  0  0  0  0  0  0  0  0
    2.4050   -7.4280   18.1640 N   0  0  0  0  0  0  0  0  0  0  0  0
    1.1770   -5.7790   16.8820 N   0  0  0  0  0  0  0  0  0  0  0  0
    1.6820   -8.1330   18.0230 H   0  0  0  0  0  0  0  0  0  0  0  0
    2.2600  -11.9420   18.7220 O   0  0  0  0  0  0  0  0  0  0  0  0
    2.5030  -12.8600   18.7480 H   0  0  0  0  0  0  0  0  0  0  0  0
  1  3  1  0  0  0  0
  1  2  1  0  0  0  0
  1  6  1  1  0  0  0
  2  5  1  0  0  0  0
  3  4  1  0  0  0  0
  3 20  1  6  0  0  0
  4 36  1  1  0  0  0
  4  5  1  0  0  0  0
  5 22  1  1  0  0  0
  6  7  1  0  0  0  0
  7  8  1  0  0  0  0
  8  9  2  6  0  0  0
  8 10  1  0  0  0  0
  8 11  1  0  0  0  0
 11 12  1  0  0  0  0
 12 15  1  0  0  0  0
 12 13  2  1  0  0  0
 12 14  1  0  0  0  0
 15 16  1  0  0  0  0
 16 19  2  0  0  0  0
 16 17  1  0  0  0  0
 16 18  1  0  0  0  0
 20 21  1  0  0  0  0
 22 28  1  0  0  0  0
 22 23  1  0  0  0  0
 23 24  1  0  0  0  0
 24 25  1  0  0  0  0
 24 26  1  0  0  0  0
 25 27  1  0  0  0  0
 25 28  2  0  0  0  0
 27 29  1  0  0  0  0
 27 30  2  0  0  0  0
 28 33  1  0  0  0  0
 29 32  1  0  0  0  0
 29 31  1  0  0  0  0
 31 34  1  1  0  0  0
 31 33  1  0  0  0  0
 33 35  1  0  0  0  0
 36 37  1  0  0  0  0
M  END
>  <MODEL>
1

>  <REMARK>
 VINA RESULT:   -10.814      0.000      0.000
 INTER + INTRA:         -17.669
 INTER:                 -16.504
 INTRA:                  -1.165
 UNBOUND:                -1.165
  10 active torsions:
  status: ('A' for Active; 'I' for Inactive)
    1  A    between atoms: P_1  and  C_5 
    2  A    between atoms: C_5  and  P_6 
    3  A    between atoms: P_6  and  O_9 
    4  A    between atoms: O_9  and  P_10 
    5  A    between atoms: P_10  and  O_13 
    6  A    between atoms: O_13  and  C_14 
    7  A    between atoms: C_14  and  C_15 
    8  A    between atoms: C_17  and  O_18 
    9  A    between atoms: C_20  and  O_21 
   10  A    between atoms: C_23  and  N_24 

>  <COMPND>
    /home/daniil/Downloads/ml_docking_review/databases/Vina/outputs/7OMJ_GCP/7OMJ_GCP.pdbqt 

>  <AUTHOR>
    GENERATED BY OPEN BABEL 3.2.1

>  <MASTER>
        0    0    0    0    0    0    0    0   37    0   37    0

$$$$
