../../databases/Vina/outputs/6YDY_K73/6YDY_K731.pdb
 OpenBabel08242612033D

 35 37  0  0  1  0  0  0  0  0999 V2000
   29.3600    1.6090    2.3700 C   0  0  0  0  0  0  0  0  0  0  0  0
   27.2740    1.4560    0.9430 C   0  0  0  0  0  0  0  0  0  0  0  0
   27.2510    0.7550    3.2610 C   0  0  2  0  0  0  0  0  0  0  0  0
   28.3450    0.7200    4.3420 C   0  0  0  0  0  0  0  0  0  0  0  0
   29.6560    0.7420    3.5670 C   0  0  0  0  0  0  0  0  0  0  0  0
   27.9490    1.2960    2.0890 N   0  0  0  0  0  0  0  0  0  0  0  0
   26.1140    1.1020    0.8360 O   0  0  0  0  0  0  0  0  0  0  0  0
   26.0890    1.6540    3.6770 C   0  0  0  0  0  0  0  0  0  0  0  0
   24.9050    1.0660    3.8140 N   0  0  0  0  0  0  0  0  0  0  0  0
   24.8310    0.0640    3.6390 H   0  0  0  0  0  0  0  0  0  0  0  0
   26.2630    2.8560    3.8640 O   0  0  0  0  0  0  0  0  0  0  0  0
   23.7090    1.7970    4.2050 C   0  0  0  0  0  0  0  0  0  0  0  0
   22.5740    1.5920    3.2280 C   0  0  0  0  0  0  0  0  0  0  0  0
   21.5660    0.6720    3.4710 C   0  0  0  0  0  0  0  0  0  0  0  0
   20.5670    0.4440    2.5400 C   0  0  0  0  0  0  0  0  0  0  0  0
   20.5480    1.1280    1.3310 C   0  0  0  0  0  0  0  0  0  0  0  0
   21.5460    2.0600    1.0970 C   0  0  0  0  0  0  0  0  0  0  0  0
   22.5400    2.2940    2.0330 C   0  0  0  0  0  0  0  0  0  0  0  0
   19.4930    0.8130    0.2910 C   0  0  0  0  0  0  0  0  0  0  0  0
   19.7230    1.4410   -1.0310 N   0  0  0  0  0  4  0  0  0  0  0  0
   19.5240    0.7760   -1.7790 H   0  0  0  0  0  0  0  0  0  0  0  0
   19.0050    2.1390   -1.2220 H   0  0  0  0  0  0  0  0  0  0  0  0
   20.6520    1.8440   -1.1530 H   0  0  0  0  0  0  0  0  0  0  0  0
   27.9980    2.0730   -0.2510 C   0  0  1  0  0  0  0  0  0  0  0  0
   27.6160    1.3270   -1.5340 C   0  0  0  0  0  0  0  0  0  0  0  0
   28.3180    0.0110   -1.7660 C   0  0  0  0  0  0  0  0  0  0  0  0
   28.6260   -0.4200   -3.0510 C   0  0  0  0  0  0  0  0  0  0  0  0
   29.2140   -1.6550   -3.2590 C   0  0  0  0  0  0  0  0  0  0  0  0
   29.5190   -2.4680   -2.1880 C   0  0  0  0  0  0  0  0  0  0  0  0
   29.2350   -2.0420   -0.9110 C   0  0  0  0  0  0  0  0  0  0  0  0
   28.6360   -0.8140   -0.7020 C   0  0  0  0  0  0  0  0  0  0  0  0
   27.4860    3.4560   -0.3000 N   0  0  0  0  0  4  0  0  0  0  0  0
   27.1570    3.7500   -1.2200 H   0  0  0  0  0  0  0  0  0  0  0  0
   26.5980    3.5930    0.1840 H   0  0  0  0  0  0  0  0  0  0  0  0
   28.2560    4.0150    0.0700 H   0  0  0  0  0  0  0  0  0  0  0  0
  1  6  1  0  0  0  0
  1  5  1  0  0  0  0
  2 24  1  0  0  0  0
  2  7  2  0  0  0  0
  2  6  1  0  0  0  0
  3  6  1  0  0  0  0
  3  8  1  1  0  0  0
  3  4  1  0  0  0  0
  4  5  1  0  0  0  0
  8  9  1  0  0  0  0
  8 11  2  0  0  0  0
  9 10  1  0  0  0  0
  9 12  1  0  0  0  0
 12 13  1  0  0  0  0
 13 18  2  0  0  0  0
 13 14  1  0  0  0  0
 14 15  2  0  0  0  0
 15 16  1  0  0  0  0
 16 19  1  0  0  0  0
 16 17  2  0  0  0  0
 17 18  1  0  0  0  0
 19 20  1  0  0  0  0
 20 21  1  0  0  0  0
 20 22  1  0  0  0  0
 20 23  1  0  0  0  0
 24 25  1  6  0  0  0
 24 32  1  0  0  0  0
 25 26  1  0  0  0  0
 26 27  2  0  0  0  0
 26 31  1  0  0  0  0
 27 28  1  0  0  0  0
 28 29  2  0  0  0  0
 29 30  1  0  0  0  0
 30 31  2  0  0  0  0
 32 33  1  0  0  0  0
 32 35  1  0  0  0  0
 32 34  1  0  0  0  0
M  END
>  <MODEL>
1

>  <REMARK>
 VINA RESULT:    -8.175      0.000      0.000
 INTER + INTRA:         -12.917
 INTER:                 -11.998
 INTRA:                  -0.919
 UNBOUND:                -0.919
  9 active torsions:
  status: ('A' for Active; 'I' for Inactive)
    1  A    between atoms: N_1  and  C_5 
    2  A    between atoms: C_5  and  C_7 
       I    between atoms: C_9  and  N_30 
    3  A    between atoms: C_9  and  C_10 
    4  A    between atoms: C_10  and  C_11 
    5  A    between atoms: C_10  and  N_31 
    6  A    between atoms: C_11  and  C_12 
    7  A    between atoms: C_22  and  C_23 
    8  A    between atoms: C_23  and  N_28 
    9  A    between atoms: C_24  and  C_25 
       I    between atoms: C_24  and  N_28 

>  <COMPND>
    /home/daniil/Downloads/ml_docking_review/databases/Vina/outputs/6YDY_K73/6YDY_K73.pdbqt 

>  <AUTHOR>
    GENERATED BY OPEN BABEL 3.2.1

>  <MASTER>
        0    0    0    0    0    0    0    0   35    0   35    0

$$$$
