../../databases/Vina/outputs/7CNQ_G8X/7CNQ_G8X1.pdb
 OpenBabel08242612033D

 12 12  0  0  1  0  0  0  0  0999 V2000
   -0.8800   13.4400   64.9990 N   0  0  0  0  0  4  0  0  0  0  0  0
   -1.6700   13.3860   65.6430 H   0  0  0  0  0  0  0  0  0  0  0  0
   -0.4420   12.5560   65.2560 H   0  0  0  0  0  0  0  0  0  0  0  0
   -0.1340   14.1440   62.8630 C   0  0  2  0  0  0  0  0  0  0  0  0
    0.4900   15.0800   63.8820 C   0  0  0  0  0  0  0  0  0  0  0  0
   -0.0120   14.6090   65.2420 C   0  0  0  0  0  0  0  0  0  0  0  0
   -1.2910   13.4930   63.5820 C   0  0  1  0  0  0  0  0  0  0  0  0
   -1.5170   12.1180   63.0280 C   0  0  0  0  0  0  0  0  0  0  0  0
   -1.9960   11.2460   63.7830 O   0  0  0  0  0  0  0  0  0  0  0  0
   -1.2900   11.9160   61.8120 O   0  0  0  0  0  0  0  0  0  0  0  0
    0.7570   13.0780   62.5560 O   0  0  0  0  0  0  0  0  0  0  0  0
    1.0510   13.1400   61.6550 H   0  0  0  0  0  0  0  0  0  0  0  0
  1  7  1  0  0  0  0
  1  6  1  0  0  0  0
  1  3  1  0  0  0  0
  1  2  1  0  0  0  0
  4 11  1  1  0  0  0
  4  7  1  0  0  0  0
  4  5  1  0  0  0  0
  5  6  1  0  0  0  0
  7  8  1  6  0  0  0
  8 10  2  0  0  0  0
  8  9  1  0  0  0  0
 11 12  1  0  0  0  0
M  END
>  <MODEL>
1

>  <REMARK>
 VINA RESULT:    -6.670      0.000      0.000
 INTER + INTRA:          -7.181
 INTER:                  -7.255
 INTRA:                   0.074
 UNBOUND:                 0.074
  2 active torsions:
  status: ('A' for Active; 'I' for Inactive)
    1  A    between atoms: O_1  and  C_7 
    2  A    between atoms: CA_10  and  C_11 

>  <COMPND>
    /home/daniil/Downloads/ml_docking_review/databases/Vina/outputs/7CNQ_G8X/7CNQ_G8X.pdbqt 

>  <AUTHOR>
    GENERATED BY OPEN BABEL 3.2.1

>  <MASTER>
        0    0    0    0    0    0    0    0   12    0   12    0

$$$$
