../../databases/Vina/outputs/7UF2_5SP/7UF2_5SP1.pdb
 OpenBabel08242616453D

 17 16  0  0  1  0  0  0  0  0999 V2000
   -5.9350   -6.1780   13.1300 C   0  0  1  0  0  0  0  0  0  0  0  0
   -7.1790   -5.6370   12.4780 C   0  0  0  0  0  0  0  0  0  0  0  0
   -6.6910   -4.4860   11.8900 O   0  0  0  0  0  0  0  0  0  0  0  0
   -7.0270   -4.2550   10.3120 P   0  0  0  0  0  0  0  0  0  0  0  0
   -8.4010   -3.6220   10.2660 O   0  0  0  0  0  0  0  0  0  0  0  0
   -5.9820   -3.3500    9.7510 O   0  0  0  0  0  0  0  0  0  0  0  0
   -7.1710   -5.5090    9.4970 O   0  0  0  0  0  0  0  0  0  0  0  0
   -5.7210   -7.5150   12.7630 O   0  0  0  0  0  0  0  0  0  0  0  0
   -5.4220   -7.5750   11.8640 H   0  0  0  0  0  0  0  0  0  0  0  0
   -4.6730   -5.4800   12.6010 C   0  0  2  0  0  0  0  0  0  0  0  0
   -3.9760   -6.2080   11.6440 O   0  0  0  0  0  0  0  0  0  0  0  0
   -3.2290   -5.7520   11.2740 H   0  0  0  0  0  0  0  0  0  0  0  0
   -3.8580   -5.4390   13.8990 C   0  0  0  0  0  0  0  0  0  0  0  0
   -4.4460   -5.6310   14.9160 O   0  0  0  0  0  0  0  0  0  0  0  0
   -2.3670   -5.0510   13.8640 C   0  0  0  0  0  0  0  0  0  0  0  0
   -1.5610   -6.1110   13.4190 O   0  0  0  0  0  0  0  0  0  0  0  0
   -1.1360   -5.9110   12.5920 H   0  0  0  0  0  0  0  0  0  0  0  0
  1  2  1  6  0  0  0
  1 10  1  0  0  0  0
  1  8  1  0  0  0  0
  2  3  1  0  0  0  0
  3  4  1  0  0  0  0
  4  7  2  0  0  0  0
  4  6  1  0  0  0  0
  4  5  1  0  0  0  0
  8  9  1  0  0  0  0
 10 11  1  6  0  0  0
 10 13  1  0  0  0  0
 11 12  1  0  0  0  0
 13 15  1  0  0  0  0
 13 14  2  0  0  0  0
 15 16  1  0  0  0  0
 16 17  1  0  0  0  0
M  END
>  <MODEL>
1

>  <REMARK>
 VINA RESULT:    -6.265      0.000      0.000
 INTER + INTRA:          -9.746
 INTER:                  -9.012
 INTRA:                  -0.734
 UNBOUND:                -0.734
  9 active torsions:
  status: ('A' for Active; 'I' for Inactive)
    1  A    between atoms: O_1  and  C_3 
    2  A    between atoms: C_3  and  C_4 
    3  A    between atoms: C_4  and  C_6 
    4  A    between atoms: C_6  and  O_14 
    5  A    between atoms: C_6  and  C_7 
    6  A    between atoms: C_7  and  C_8 
    7  A    between atoms: C_7  and  O_16 
    8  A    between atoms: C_8  and  O_9 
    9  A    between atoms: O_9  and  P_10 

>  <COMPND>
    /home/daniil/Downloads/ml_docking_review/databases/Vina/outputs/7UF2_5SP/7UF2_5SP.pdbqt 

>  <AUTHOR>
    GENERATED BY OPEN BABEL 3.2.1

>  <MASTER>
        0    0    0    0    0    0    0    0   17    0   17    0

$$$$
