../../databases/Vina/outputs/7ZL5_IWE/7ZL5_IWE1.pdb
 OpenBabel08242616453D

 30 32  0  0  0  0  0  0  0  0999 V2000
  -18.1130   37.0420   41.6120 C   0  0  0  0  0  0  0  0  0  0  0  0
  -18.1510   37.6540   42.8480 C   0  0  0  0  0  0  0  0  0  0  0  0
  -17.3770   37.1860   43.9020 C   0  0  0  0  0  0  0  0  0  0  0  0
  -16.5420   36.0660   43.6870 C   0  0  0  0  0  0  0  0  0  0  0  0
  -16.5500   35.4510   42.4340 C   0  0  0  0  0  0  0  0  0  0  0  0
  -19.2610   37.6050   40.4440 Cl  0  0  0  0  0  0  0  0  0  0  0  0
  -17.3120   35.9230   41.3790 C   0  0  0  0  0  0  0  0  0  0  0  0
  -15.6240   35.5550   44.7300 C   0  0  0  0  0  0  0  0  0  0  0  0
  -14.2780   35.3920   44.5930 N   0  0  0  0  0  0  0  0  0  0  0  0
  -13.8410   34.7710   45.6810 N   0  0  0  0  0  0  0  0  0  0  0  0
  -13.7100   35.6930   43.8000 H   0  0  0  0  0  0  0  0  0  0  0  0
  -14.9010   34.5460   46.4230 N   0  0  0  0  0  0  0  0  0  0  0  0
  -12.8770   34.5190   45.8970 H   0  0  0  0  0  0  0  0  0  0  0  0
  -16.0180   35.0070   45.8770 N   0  0  0  0  0  0  0  0  0  0  0  0
  -14.8690   34.0670   47.3230 H   0  0  0  0  0  0  0  0  0  0  0  0
  -16.9660   34.9540   46.2510 H   0  0  0  0  0  0  0  0  0  0  0  0
  -17.3710   37.8630   45.1270 N   0  0  0  0  0  0  0  0  0  0  0  0
  -16.6380   38.5570   45.2760 H   0  0  0  0  0  0  0  0  0  0  0  0
  -18.3230   37.6570   46.2000 C   0  0  0  0  0  0  0  0  0  0  0  0
  -19.7280   37.5770   45.7040 C   0  0  0  0  0  0  0  0  0  0  0  0
  -20.5340   38.5960   45.4720 C   0  0  0  0  0  0  0  0  0  0  0  0
  -21.8430   38.2000   45.1290 C   0  0  0  0  0  0  0  0  0  0  0  0
  -22.0180   36.8620   45.0810 C   0  0  0  0  0  0  0  0  0  0  0  0
  -20.5930   36.0760   45.4580 S   0  0  0  0  0  0  0  0  0  0  0  0
  -17.1630   35.1010   39.8130 S   0  0  0  0  0  0  0  0  0  0  0  0
  -16.4750   33.8500   40.0640 O   0  0  0  0  0  0  0  0  0  0  0  0
  -18.5020   35.0220   39.3040 O   0  0  0  0  0  0  0  0  0  0  0  0
  -16.2580   36.0250   38.9180 N   0  0  0  0  0  0  0  0  0  0  0  0
  -15.9330   36.9520   39.1900 H   0  0  0  0  0  0  0  0  0  0  0  0
  -16.0540   35.5510   38.0390 H   0  0  0  0  0  0  0  0  0  0  0  0
  1  6  1  0  0  0  0
  1  7  2  0  0  0  0
  1  2  1  0  0  0  0
  2  3  2  0  0  0  0
  3  4  1  0  0  0  0
  3 17  1  0  0  0  0
  4  5  2  0  0  0  0
  4  8  1  0  0  0  0
  5  7  1  0  0  0  0
  7 25  1  0  0  0  0
  8  9  1  0  0  0  0
  8 14  1  0  0  0  0
  9 11  1  0  0  0  0
  9 10  1  0  0  0  0
 10 13  1  0  0  0  0
 10 12  1  0  0  0  0
 12 14  1  0  0  0  0
 12 15  1  0  0  0  0
 14 16  1  0  0  0  0
 17 18  1  0  0  0  0
 17 19  1  0  0  0  0
 19 20  1  0  0  0  0
 20 24  1  0  0  0  0
 20 21  2  0  0  0  0
 21 22  1  0  0  0  0
 22 23  2  0  0  0  0
 23 24  1  0  0  0  0
 25 28  1  0  0  0  0
 25 27  2  0  0  0  0
 25 26  2  0  0  0  0
 28 30  1  0  0  0  0
 28 29  1  0  0  0  0
M  END
>  <MODEL>
1

>  <REMARK>
 VINA RESULT:    -8.380      0.000      0.000
 INTER + INTRA:         -11.338
 INTER:                 -11.074
 INTRA:                  -0.263
 UNBOUND:                -0.263
  6 active torsions:
  status: ('A' for Active; 'I' for Inactive)
    1  A    between atoms: C_5  and  N_28 
    2  A    between atoms: C_6  and  C_7 
    3  A    between atoms: C_9  and  C_11 
    4  A    between atoms: C_9  and  N_28 
    5  A    between atoms: C_22  and  S_23 
    6  A    between atoms: S_23  and  N_24 

>  <COMPND>
    /home/daniil/Downloads/ml_docking_review/databases/Vina/outputs/7ZL5_IWE/7ZL5_IWE.pdbqt 

>  <AUTHOR>
    GENERATED BY OPEN BABEL 3.2.1

>  <MASTER>
        0    0    0    0    0    0    0    0   30    0   30    0

$$$$
