../../databases/Vina/outputs/7BLG_GAL/7BLG_GAL1.pdb
 OpenBabel08242616453D

 17 17  0  0  1  0  0  0  0  0999 V2000
  -27.1160   -6.2690  -16.9310 C   0  0  1  0  0  0  0  0  0  0  0  0
  -26.3310   -5.6540  -15.7780 C   0  0  1  0  0  0  0  0  0  0  0  0
  -27.1080   -4.5460  -15.0970 C   0  0  2  0  0  0  0  0  0  0  0  0
  -27.6650   -3.5560  -16.1540 C   0  0  2  0  0  0  0  0  0  0  0  0
  -28.4010   -4.3160  -17.2390 C   0  0  2  0  0  0  0  0  0  0  0  0
  -27.5250   -5.2740  -17.8420 O   0  0  0  0  0  0  0  0  0  0  0  0
  -28.9040   -3.4440  -18.3690 C   0  0  0  0  0  0  0  0  0  0  0  0
  -27.8340   -3.0280  -19.2130 O   0  0  0  0  0  0  0  0  0  0  0  0
  -27.1250   -2.6500  -18.7080 H   0  0  0  0  0  0  0  0  0  0  0  0
  -26.6010   -2.8500  -16.7590 O   0  0  0  0  0  0  0  0  0  0  0  0
  -25.8960   -2.7810  -16.1260 H   0  0  0  0  0  0  0  0  0  0  0  0
  -26.2590   -3.8270  -14.2050 O   0  0  0  0  0  0  0  0  0  0  0  0
  -26.3360   -2.9000  -14.3960 H   0  0  0  0  0  0  0  0  0  0  0  0
  -26.3140   -7.1600  -17.6270 O   0  0  0  0  0  0  0  0  0  0  0  0
  -26.1600   -7.9040  -17.0570 H   0  0  0  0  0  0  0  0  0  0  0  0
  -26.0650   -6.6500  -14.7940 O   0  0  0  0  0  0  0  0  0  0  0  0
  -26.3760   -7.4790  -15.1400 H   0  0  0  0  0  0  0  0  0  0  0  0
  1  6  1  0  0  0  0
  1 14  1  6  0  0  0
  1  2  1  0  0  0  0
  2  3  1  0  0  0  0
  2 16  1  1  0  0  0
  3  4  1  0  0  0  0
  3 12  1  1  0  0  0
  4  5  1  0  0  0  0
  4 10  1  6  0  0  0
  5  7  1  6  0  0  0
  5  6  1  0  0  0  0
  7  8  1  0  0  0  0
  8  9  1  0  0  0  0
 10 11  1  0  0  0  0
 12 13  1  0  0  0  0
 14 15  1  0  0  0  0
 16 17  1  0  0  0  0
M  END
>  <MODEL>
1

>  <REMARK>
 VINA RESULT:    -4.303      0.000      0.000
 INTER + INTRA:          -5.417
 INTER:                  -5.183
 INTRA:                  -0.234
 UNBOUND:                -0.234
  6 active torsions:
  status: ('A' for Active; 'I' for Inactive)
    1  A    between atoms: C_1  and  O_7 
    2  A    between atoms: C_2  and  O_9 
    3  A    between atoms: C_3  and  O_11 
    4  A    between atoms: C_4  and  O_13 
    5  A    between atoms: C_5  and  C_6 
    6  A    between atoms: C_6  and  O_16 

>  <COMPND>
    /home/daniil/Downloads/ml_docking_review/databases/Vina/outputs/7BLG_GAL/7BLG_GAL.pdbqt 

>  <AUTHOR>
    GENERATED BY OPEN BABEL 3.2.1

>  <MASTER>
        0    0    0    0    0    0    0    0   17    0   17    0

$$$$
