../../databases/Vina/outputs/7DUA_HJ0/7DUA_HJ01.pdb
 OpenBabel08242616453D

 28 31  0  0  1  0  0  0  0  0999 V2000
   23.5190   11.2060  -24.2340 C   0  0  0  0  0  0  0  0  0  0  0  0
   23.1390   15.0190  -26.5800 C   0  0  0  0  0  0  0  0  0  0  0  0
   25.1550   14.0100  -25.9820 C   0  0  2  0  0  0  0  0  0  0  0  0
   24.4230   12.9780  -25.3430 C   0  0  0  0  0  0  0  0  0  0  0  0
   24.7280   11.7440  -24.6010 C   0  0  0  0  0  0  0  0  0  0  0  0
   22.5250   11.9600  -24.7160 N   0  0  0  0  0  0  0  0  0  0  0  0
   23.0110   13.0420  -25.3830 C   0  0  0  0  0  0  0  0  0  0  0  0
   22.4150   14.0650  -26.0130 N   0  0  0  0  0  0  0  0  0  0  0  0
   21.3970   14.1090  -26.0560 H   0  0  0  0  0  0  0  0  0  0  0  0
   24.4700   15.0000  -26.5860 N   0  0  0  0  0  0  0  0  0  0  0  0
   24.9810   15.7490  -27.0560 H   0  0  0  0  0  0  0  0  0  0  0  0
   26.5350   14.0240  -26.0370 N   0  0  0  0  0  0  0  0  0  0  0  0
   26.0500   11.2640  -24.1900 C   0  0  0  0  0  0  0  0  0  0  0  0
   26.0840   10.3750  -23.3490 O   0  0  0  0  0  0  0  0  0  0  0  0
   27.1640   11.7270  -24.7890 N   0  0  0  0  0  0  0  0  0  0  0  0
   27.0570   12.4800  -25.4690 H   0  0  0  0  0  0  0  0  0  0  0  0
   28.4380   11.2590  -24.5500 C   0  0  2  0  0  0  0  0  0  0  0  0
   28.7650   10.0320  -24.9140 N   0  0  0  0  0  0  0  0  0  0  0  0
   30.0680    9.8070  -24.4960 N   0  0  0  0  0  0  0  0  0  0  0  0
   28.1680    9.3700  -25.4110 H   0  0  0  0  0  0  0  0  0  0  0  0
   30.4980   10.8540  -23.8460 C   0  0  0  0  0  0  0  0  0  0  0  0
   30.6060    8.9570  -24.6680 H   0  0  0  0  0  0  0  0  0  0  0  0
   31.8570   10.9940  -23.2150 C   0  0  0  0  0  0  0  0  0  0  0  0
   29.4780   11.7960  -23.8350 C   0  0  0  0  0  0  0  0  0  0  0  0
   21.1010   11.6890  -24.5730 C   0  0  0  0  0  0  0  0  0  0  0  0
   20.3300   12.7690  -23.8100 C   0  0  0  0  0  0  0  0  0  0  0  0
   20.7400   10.2230  -24.3530 C   0  0  0  0  0  0  0  0  0  0  0  0
   20.3650   10.9100  -25.6640 C   0  0  0  0  0  0  0  0  0  0  0  0
  1  6  1  0  0  0  0
  1  5  2  0  0  0  0
  2 10  1  0  0  0  0
  2  8  1  0  0  0  0
  3 10  1  0  0  0  0
  3 12  1  6  0  0  0
  3  4  1  0  0  0  0
  4  7  2  0  0  0  0
  4  5  1  0  0  0  0
  5 13  1  0  0  0  0
  6  7  1  0  0  0  0
  6 25  1  0  0  0  0
  7  8  1  0  0  0  0
  8  9  1  0  0  0  0
 10 11  1  0  0  0  0
 13 15  1  0  0  0  0
 13 14  2  0  0  0  0
 15 16  1  0  0  0  0
 17 15  1  1  0  0  0
 17 18  1  0  0  0  0
 17 24  1  0  0  0  0
 18 20  1  0  0  0  0
 18 19  1  0  0  0  0
 19 22  1  0  0  0  0
 19 21  1  0  0  0  0
 21 24  2  0  0  0  0
 21 23  1  0  0  0  0
 25 28  1  0  0  0  0
 25 27  1  0  0  0  0
 25 26  1  0  0  0  0
 27 28  1  0  0  0  0
M  END
>  <MODEL>
1

>  <REMARK>
 VINA RESULT:    -9.444      0.000      0.000
 INTER + INTRA:         -11.522
 INTER:                 -11.100
 INTRA:                  -0.422
 UNBOUND:                -0.422
  3 active torsions:
  status: ('A' for Active; 'I' for Inactive)
       I    between atoms: C_1  and  N_13 
    1  A    between atoms: C_1  and  C_19 
    2  A    between atoms: C_2  and  N_13 
    3  A    between atoms: N_20  and  C_27 

>  <COMPND>
    /home/daniil/Downloads/ml_docking_review/databases/Vina/outputs/7DUA_HJ0/7DUA_HJ0.pdbqt 

>  <AUTHOR>
    GENERATED BY OPEN BABEL 3.2.1

>  <MASTER>
        0    0    0    0    0    0    0    0   28    0   28    0

$$$$
