../../databases/Vina/outputs/7VKZ_NOJ/7VKZ_NOJ1.pdb
 OpenBabel08242616453D

 16 16  0  0  1  0  0  0  0  0999 V2000
   13.7800    3.2700   34.3510 C   0  0  0  0  0  0  0  0  0  0  0  0
   13.1640    2.1410   35.1690 C   0  0  1  0  0  0  0  0  0  0  0  0
   12.9630    2.5680   36.6090 C   0  0  2  0  0  0  0  0  0  0  0  0
   14.2880    3.0050   37.2090 C   0  0  1  0  0  0  0  0  0  0  0  0
   14.9710    4.0910   36.3650 C   0  0  2  0  0  0  0  0  0  0  0  0
   15.0360    3.7300   34.9360 N   0  0  0  0  0  0  0  0  0  0  0  0
   15.8980    3.7970   34.3950 H   0  0  0  0  0  0  0  0  0  0  0  0
   16.4170    4.3510   36.7830 C   0  0  0  0  0  0  0  0  0  0  0  0
   16.5030    4.8260   38.1560 O   0  0  0  0  0  0  0  0  0  0  0  0
   16.0910    5.6750   38.2600 H   0  0  0  0  0  0  0  0  0  0  0  0
   14.0970    3.4450   38.5590 O   0  0  0  0  0  0  0  0  0  0  0  0
   13.1700    3.4700   38.7670 H   0  0  0  0  0  0  0  0  0  0  0  0
   12.5010    1.4510   37.3720 O   0  0  0  0  0  0  0  0  0  0  0  0
   11.9620    1.7630   38.0890 H   0  0  0  0  0  0  0  0  0  0  0  0
   11.9360    1.7560   34.5650 O   0  0  0  0  0  0  0  0  0  0  0  0
   11.6200    0.9320   34.9160 H   0  0  0  0  0  0  0  0  0  0  0  0
  1  6  1  0  0  0  0
  1  2  1  0  0  0  0
  2 15  1  6  0  0  0
  2  3  1  0  0  0  0
  3  4  1  0  0  0  0
  3 13  1  1  0  0  0
  4  5  1  0  0  0  0
  4 11  1  1  0  0  0
  5  6  1  0  0  0  0
  5  8  1  1  0  0  0
  6  7  1  0  0  0  0
  8  9  1  0  0  0  0
  9 10  1  0  0  0  0
 11 12  1  0  0  0  0
 13 14  1  0  0  0  0
 15 16  1  0  0  0  0
M  END
>  <MODEL>
1

>  <REMARK>
 VINA RESULT:    -6.615      0.000      0.000
 INTER + INTRA:          -8.003
 INTER:                  -7.775
 INTRA:                  -0.228
 UNBOUND:                -0.228
  5 active torsions:
  status: ('A' for Active; 'I' for Inactive)
    1  A    between atoms: C_2  and  O_3 
    2  A    between atoms: C_5  and  O_6 
    3  A    between atoms: C_8  and  O_9 
    4  A    between atoms: C_11  and  C_14 
    5  A    between atoms: C_14  and  O_15 

>  <COMPND>
    /home/daniil/Downloads/ml_docking_review/databases/Vina/outputs/7VKZ_NOJ/7VKZ_NOJ.pdbqt 

>  <AUTHOR>
    GENERATED BY OPEN BABEL 3.2.1

>  <MASTER>
        0    0    0    0    0    0    0    0   16    0   16    0

$$$$
