../../databases/Vina/outputs/7NA4_1I9/7NA4_1I91.pdb
 OpenBabel08242616453D

 43 48  0  0  1  0  0  0  0  0999 V2000
   -8.0770   11.3880   -2.1000 C   0  0  0  0  0  0  0  0  0  0  0  0
   -8.9470   10.3690   -4.5030 C   0  0  2  0  0  0  0  0  0  0  0  0
   -9.9020   10.8760   -3.6400 C   0  0  0  0  0  0  0  0  0  0  0  0
   -9.4620   11.4130   -2.4100 C   0  0  0  0  0  0  0  0  0  0  0  0
   -9.2310   12.3020   -0.4540 C   0  0  1  0  0  0  0  0  0  0  0  0
   -7.9620   11.9600   -0.8400 N   0  0  0  0  0  0  0  0  0  0  0  0
   -7.1900   10.8470   -3.0570 C   0  0  0  0  0  0  0  0  0  0  0  0
   -7.6590   10.4030   -4.2030 N   0  0  0  0  0  0  0  0  0  0  0  0
   -6.9940   10.0670   -4.8980 H   0  0  0  0  0  0  0  0  0  0  0  0
  -10.1130   11.9740   -1.3670 N   0  0  0  0  0  0  0  0  0  0  0  0
  -11.1200   12.1190   -1.3010 H   0  0  0  0  0  0  0  0  0  0  0  0
   -6.6940   12.1890   -0.1060 C   0  0  2  0  0  0  0  0  0  0  0  0
   -6.7260   11.4110    1.2550 C   0  0  0  0  0  0  0  0  0  0  0  0
   -6.3570   13.6850   -0.0020 C   0  0  2  0  0  0  0  0  0  0  0  0
   -6.2660   14.3850   -1.3790 C   0  0  0  0  0  0  0  0  0  0  0  0
   -5.6700   15.8100   -1.3030 C   0  0  0  0  0  0  0  0  0  0  0  0
   -4.3420   15.9000   -0.5780 C   0  0  2  0  0  0  0  0  0  0  0  0
   -4.6100   15.3130    0.8080 C   0  0  0  0  0  0  0  0  0  0  0  0
   -3.8120   17.3310   -0.3960 C   0  0  0  0  0  0  0  0  0  0  0  0
   -4.9830   13.8570    0.6660 C   0  0  0  0  0  0  0  0  0  0  0  0
   -9.5830   12.9690    0.8520 C   0  0  1  0  0  0  0  0  0  0  0  0
  -10.4400   14.1850    0.5120 C   0  0  0  0  0  0  0  0  0  0  0  0
  -10.3820   15.4180    1.4350 C   0  0  0  0  0  0  0  0  0  0  0  0
   -9.7010   15.4560    0.0650 C   0  0  0  0  0  0  0  0  0  0  0  0
  -10.2260   11.9780    1.6730 O   0  0  0  0  0  0  0  0  0  0  0  0
  -10.0910   12.2370    3.0990 C   0  0  0  0  0  0  0  0  0  0  0  0
   -9.3130   11.1420    3.8360 C   0  0  0  0  0  0  0  0  0  0  0  0
   -5.7340   10.7540   -2.9200 C   0  0  0  0  0  0  0  0  0  0  0  0
   -4.9200   11.5500   -3.7210 C   0  0  0  0  0  0  0  0  0  0  0  0
   -3.5490   11.4020   -3.5720 C   0  0  0  0  0  0  0  0  0  0  0  0
   -2.4930   12.3520   -4.5100 Cl  0  0  0  0  0  0  0  0  0  0  0  0
   -3.0200   10.5340   -2.6180 C   0  0  0  0  0  0  0  0  0  0  0  0
   -3.8190    9.7750   -1.8950 N   0  0  0  0  0  0  0  0  0  0  0  0
   -5.1410    9.8500   -2.0090 C   0  0  0  0  0  0  0  0  0  0  0  0
   -3.4130    9.1150   -1.2320 H   0  0  0  0  0  0  0  0  0  0  0  0
   -9.3090    9.8570   -5.8310 C   0  0  1  0  0  0  0  0  0  0  0  0
   -9.0390   10.4550   -7.0400 N   0  0  0  0  0  0  0  0  0  0  0  0
   -9.4930    9.5600   -7.9590 C   0  0  0  0  0  0  0  0  0  0  0  0
   -8.5990   11.3600   -7.2080 H   0  0  0  0  0  0  0  0  0  0  0  0
   -9.4340    9.6860   -9.1720 O   0  0  0  0  0  0  0  0  0  0  0  0
  -10.0000    8.5110   -7.2770 O   0  0  0  0  0  0  0  0  0  0  0  0
   -9.8520    8.7000   -6.0790 N   0  0  0  0  0  0  0  0  0  0  0  0
  -10.1210    8.0300   -5.3590 H   0  0  0  0  0  0  0  0  0  0  0  0
  1  7  2  0  0  0  0
  1  4  1  0  0  0  0
  1  6  1  0  0  0  0
  2 36  1  0  0  0  0
  2  8  1  0  0  0  0
  2  3  1  6  0  0  0
  3  4  2  0  0  0  0
  4 10  1  0  0  0  0
  5 10  1  0  0  0  0
  5  6  1  0  0  0  0
  5 21  1  1  0  0  0
  6 12  1  0  0  0  0
  7  8  1  0  0  0  0
  7 28  1  0  0  0  0
  8  9  1  0  0  0  0
 10 11  1  0  0  0  0
 12 13  1  1  0  0  0
 14 12  1  6  0  0  0
 14 15  1  0  0  0  0
 14 20  1  0  0  0  0
 15 16  1  0  0  0  0
 16 17  1  0  0  0  0
 17 19  1  1  0  0  0
 17 18  1  0  0  0  0
 18 20  1  0  0  0  0
 21 22  1  0  0  0  0
 21 25  1  1  0  0  0
 22 24  1  0  0  0  0
 22 23  1  0  0  0  0
 23 24  1  0  0  0  0
 25 26  1  0  0  0  0
 26 27  1  0  0  0  0
 28 29  1  0  0  0  0
 28 34  2  0  0  0  0
 29 30  2  0  0  0  0
 30 31  1  0  0  0  0
 30 32  1  0  0  0  0
 32 33  1  0  0  0  0
 33 34  1  0  0  0  0
 33 35  1  0  0  0  0
 36 37  1  6  0  0  0
 36 42  1  0  0  0  0
 37 38  1  0  0  0  0
 37 39  1  0  0  0  0
 38 40  2  0  0  0  0
 38 41  1  0  0  0  0
 41 42  1  0  0  0  0
 42 43  1  0  0  0  0
M  END
>  <MODEL>
1

>  <REMARK>
 VINA RESULT:    -9.329      0.000      0.000
 INTER + INTRA:         -15.908
 INTER:                 -13.692
 INTRA:                  -2.216
 UNBOUND:                -2.216
  8 active torsions:
  status: ('A' for Active; 'I' for Inactive)
    1  A    between atoms: C_5  and  C_8 
    2  A    between atoms: C_8  and  N_24 
    3  A    between atoms: C_10  and  C_34 
    4  A    between atoms: C_13  and  C_30 
    5  A    between atoms: C_14  and  O_31 
    6  A    between atoms: C_18  and  C_25 
    7  A    between atoms: C_30  and  C_32 
    8  A    between atoms: C_30  and  O_31 

>  <COMPND>
    /home/daniil/Downloads/ml_docking_review/databases/Vina/outputs/7NA4_1I9/7NA4_1I9.pdbqt 

>  <AUTHOR>
    GENERATED BY OPEN BABEL 3.2.1

>  <MASTER>
        0    0    0    0    0    0    0    0   43    0   43    0

$$$$
