../../databases/Vina/outputs/7LJN_GTP/7LJN_GTP1.pdb
 OpenBabel08242616453D

 39 41  0  0  1  0  0  0  0  0999 V2000
  -62.0070   10.4350  -27.7640 C   0  0  1  0  0  0  0  0  0  0  0  0
  -63.4050   10.4380  -27.5390 O   0  0  0  0  0  0  0  0  0  0  0  0
  -61.6650   11.7650  -28.3840 C   0  0  2  0  0  0  0  0  0  0  0  0
  -62.9170   12.0490  -29.1830 C   0  0  2  0  0  0  0  0  0  0  0  0
  -64.0130   11.4340  -28.3270 C   0  0  2  0  0  0  0  0  0  0  0  0
  -64.6010   12.4390  -27.4450 N   0  0  0  0  0  0  0  0  0  0  0  0
  -63.9890   13.1680  -26.4660 C   0  0  0  0  0  0  0  0  0  0  0  0
  -64.9150   13.9620  -25.8870 N   0  0  0  0  0  0  0  0  0  0  0  0
  -66.1120   13.7340  -26.4730 C   0  0  0  0  0  0  0  0  0  0  0  0
  -64.7400   14.6240  -25.1320 H   0  0  0  0  0  0  0  0  0  0  0  0
  -67.3930   14.2470  -26.2710 C   0  0  0  0  0  0  0  0  0  0  0  0
  -65.9240   12.7670  -27.4460 C   0  0  0  0  0  0  0  0  0  0  0  0
  -68.4200   13.7710  -27.0460 N   0  0  0  0  0  0  0  0  0  0  0  0
  -67.6280   15.1080  -25.4120 O   0  0  0  0  0  0  0  0  0  0  0  0
  -68.1980   12.8170  -28.0160 C   0  0  1  0  0  0  0  0  0  0  0  0
  -69.3640   14.1300  -26.9030 H   0  0  0  0  0  0  0  0  0  0  0  0
  -69.2070   12.3900  -28.7660 N   0  0  0  0  0  0  0  0  0  0  0  0
  -66.9420   12.3190  -28.2290 N   0  0  0  0  0  0  0  0  0  0  0  0
  -70.1430   12.7610  -28.6070 H   0  0  0  0  0  0  0  0  0  0  0  0
  -69.0420   11.6850  -29.4840 H   0  0  0  0  0  0  0  0  0  0  0  0
  -66.7720   11.6270  -28.9590 H   0  0  0  0  0  0  0  0  0  0  0  0
  -62.8960   11.3330  -30.4010 O   0  0  0  0  0  0  0  0  0  0  0  0
  -62.1200   11.5550  -30.9020 H   0  0  0  0  0  0  0  0  0  0  0  0
  -60.4920   11.6680  -29.1630 O   0  0  0  0  0  0  0  0  0  0  0  0
  -60.4490   12.2900  -29.8800 H   0  0  0  0  0  0  0  0  0  0  0  0
  -61.2530   10.2150  -26.4500 C   0  0  0  0  0  0  0  0  0  0  0  0
  -60.6530    8.9350  -26.4800 O   0  0  0  0  0  0  0  0  0  0  0  0
  -59.1410    8.6920  -26.9350 P   0  0  1  0  0  0  0  0  0  0  0  0
  -59.1230    7.5780  -27.9480 O   0  0  0  0  0  0  0  0  0  0  0  0
  -58.4590    9.9470  -27.4010 O   0  0  0  0  0  0  0  0  0  0  0  0
  -58.4920    8.1760  -25.5600 O   0  0  0  0  0  0  0  0  0  0  0  0
  -56.9130    8.0620  -25.2580 P   0  0  2  0  0  0  0  0  0  0  0  0
  -56.4750    9.4030  -24.7720 O   0  0  0  0  0  0  0  0  0  0  0  0
  -56.1730    7.5620  -26.4810 O   0  0  0  0  0  0  0  0  0  0  0  0
  -56.7800    6.9860  -24.0630 O   0  0  0  0  0  0  0  0  0  0  0  0
  -55.4700    6.3240  -23.4000 P   0  0  0  0  0  0  0  0  0  0  0  0
  -55.4390    6.8940  -21.9990 O   0  0  0  0  0  0  0  0  0  0  0  0
  -55.7170    4.8390  -23.4020 O   0  0  0  0  0  0  0  0  0  0  0  0
  -54.2670    6.7340  -24.2320 O   0  0  0  0  0  0  0  0  0  0  0  0
  1  3  1  0  0  0  0
  1  2  1  0  0  0  0
  1 26  1  1  0  0  0
  2  5  1  0  0  0  0
  3  4  1  0  0  0  0
  3 24  1  6  0  0  0
  4 22  1  6  0  0  0
  4  5  1  0  0  0  0
  5  6  1  1  0  0  0
  6 12  1  0  0  0  0
  6  7  1  0  0  0  0
  7  8  1  0  0  0  0
  8  9  1  0  0  0  0
  8 10  1  0  0  0  0
  9 12  2  0  0  0  0
  9 11  1  0  0  0  0
 11 13  1  0  0  0  0
 11 14  2  0  0  0  0
 12 18  1  0  0  0  0
 13 15  1  0  0  0  0
 13 16  1  0  0  0  0
 15 17  1  6  0  0  0
 15 18  1  0  0  0  0
 17 20  1  0  0  0  0
 17 19  1  0  0  0  0
 18 21  1  0  0  0  0
 22 23  1  0  0  0  0
 24 25  1  0  0  0  0
 26 27  1  0  0  0  0
 27 28  1  0  0  0  0
 28 29  2  6  0  0  0
 28 30  1  0  0  0  0
 28 31  1  0  0  0  0
 31 32  1  0  0  0  0
 32 34  2  6  0  0  0
 32 33  1  0  0  0  0
 32 35  1  0  0  0  0
 35 36  1  0  0  0  0
 36 39  2  0  0  0  0
 36 38  1  0  0  0  0
 36 37  1  0  0  0  0
M  END
>  <MODEL>
1

>  <REMARK>
 VINA RESULT:    -9.330      0.000      0.000
 INTER + INTRA:         -15.124
 INTER:                 -14.238
 INTRA:                  -0.885
 UNBOUND:                -0.885
  10 active torsions:
  status: ('A' for Active; 'I' for Inactive)
    1  A    between atoms: P_1  and  O_5 
    2  A    between atoms: O_5  and  P_6 
    3  A    between atoms: P_6  and  O_9 
    4  A    between atoms: O_9  and  P_10 
    5  A    between atoms: P_10  and  O_13 
    6  A    between atoms: O_13  and  C_14 
    7  A    between atoms: C_14  and  C_15 
    8  A    between atoms: C_17  and  O_18 
    9  A    between atoms: C_20  and  O_21 
   10  A    between atoms: C_23  and  N_24 

>  <COMPND>
    /home/daniil/Downloads/ml_docking_review/databases/Vina/outputs/7LJN_GTP/7LJN_GTP.pdbqt 

>  <AUTHOR>
    GENERATED BY OPEN BABEL 3.2.1

>  <MASTER>
        0    0    0    0    0    0    0    0   39    0   39    0

$$$$
