../../databases/Vina/outputs/7R9N_F97/7R9N_F971.pdb
 OpenBabel08242616453D

 38 42  0  0  1  0  0  0  0  0999 V2000
  -39.2730 -115.7790  222.1410 C   0  0  0  0  0  0  0  0  0  0  0  0
  -37.5670 -111.1870  221.5150 C   0  0  0  0  0  0  0  0  0  0  0  0
  -37.2210 -109.8630  222.2500 C   0  0  0  0  0  0  0  0  0  0  0  0
  -37.3900 -111.6260  223.8930 C   0  0  0  0  0  0  0  0  0  0  0  0
  -39.0320 -115.2440  223.4070 C   0  0  2  0  0  0  0  0  0  0  0  0
  -38.8920 -115.0460  221.0370 C   0  0  0  0  0  0  0  0  0  0  0  0
  -38.2870 -113.8860  221.1910 N   0  0  0  0  0  0  0  0  0  0  0  0
  -37.9810 -113.3570  220.3750 H   0  0  0  0  0  0  0  0  0  0  0  0
  -38.0770 -113.4080  222.4090 C   0  0  1  0  0  0  0  0  0  0  0  0
  -38.4280 -114.0660  223.4950 N   0  0  0  0  0  0  0  0  0  0  0  0
  -38.2340 -113.6650  224.4130 H   0  0  0  0  0  0  0  0  0  0  0  0
  -37.4350 -112.2140  222.5600 N   0  0  1  0  0  0  0  0  0  0  0  0
  -36.6180 -110.3300  223.6080 C   0  0  0  0  0  0  0  0  0  0  0  0
  -36.8240 -109.4140  224.6410 F   0  0  0  0  0  0  0  0  0  0  0  0
  -35.2620 -110.5830  223.4480 F   0  0  0  0  0  0  0  0  0  0  0  0
  -39.4160 -115.9940  224.5040 N   0  0  0  0  0  0  0  0  0  0  0  0
  -39.3730 -117.0050  224.3820 H   0  0  0  0  0  0  0  0  0  0  0  0
  -39.8550 -115.5580  225.7560 C   0  0  2  0  0  0  0  0  0  0  0  0
  -40.2170 -116.5190  226.5920 N   0  0  0  0  0  0  0  0  0  0  0  0
  -40.6550 -116.2660  227.8040 C   0  0  0  0  0  0  0  0  0  0  0  0
  -40.1530 -117.4890  226.2840 H   0  0  0  0  0  0  0  0  0  0  0  0
  -40.7800 -114.9510  228.2470 C   0  0  0  0  0  0  0  0  0  0  0  0
  -40.4240 -113.8940  227.3840 C   0  0  0  0  0  0  0  0  0  0  0  0
  -41.2310 -114.3380  229.4840 C   0  0  0  0  0  0  0  0  0  0  0  0
  -40.6510 -112.7460  228.0690 N   0  0  0  0  0  0  0  0  0  0  0  0
  -39.9530 -114.2170  226.1110 C   0  0  0  0  0  0  0  0  0  0  0  0
  -41.1500 -113.0490  229.3420 N   0  0  0  0  0  0  0  0  0  0  0  0
  -41.4110 -112.3620  230.0510 H   0  0  0  0  0  0  0  0  0  0  0  0
  -40.4440 -111.3900  227.5690 C   0  0  0  0  0  0  0  0  0  0  0  0
  -40.0420 -110.4850  228.7350 C   0  0  0  0  0  0  0  0  0  0  0  0
  -41.7690 -110.9450  226.9560 C   0  0  0  0  0  0  0  0  0  0  0  0
  -39.1550 -115.5750  219.6550 C   0  0  1  0  0  0  0  0  0  0  0  0
  -39.2440 -114.3980  218.6630 C   0  0  0  0  0  0  0  0  0  0  0  0
  -38.7090 -114.9040  217.3830 N   0  0  0  0  0  4  0  0  0  0  0  0
  -38.1420 -116.2520  217.5990 C   0  0  0  0  0  0  0  0  0  0  0  0
  -38.0360 -114.2620  216.9630 H   0  0  0  0  0  0  0  0  0  0  0  0
  -39.4050 -114.8890  216.6390 H   0  0  0  0  0  0  0  0  0  0  0  0
  -37.9220 -116.3520  219.1280 C   0  0  0  0  0  0  0  0  0  0  0  0
  1  6  2  0  0  0  0
  1  5  1  0  0  0  0
  2  3  1  0  0  0  0
  3 13  1  0  0  0  0
  4 12  1  0  0  0  0
  4 13  1  0  0  0  0
  5 10  1  0  0  0  0
  5 16  1  1  0  0  0
  6  7  1  0  0  0  0
  7  8  1  0  0  0  0
  9  7  1  6  0  0  0
  9 12  1  0  0  0  0
  9 10  1  0  0  0  0
 10 11  1  0  0  0  0
 12  2  1  6  0  0  0
 13 15  1  0  0  0  0
 13 14  1  0  0  0  0
 16 17  1  0  0  0  0
 18 16  1  6  0  0  0
 18 26  1  0  0  0  0
 18 19  1  0  0  0  0
 19 21  1  0  0  0  0
 19 20  1  0  0  0  0
 20 22  1  0  0  0  0
 22 23  1  0  0  0  0
 22 24  2  0  0  0  0
 23 26  2  0  0  0  0
 23 25  1  0  0  0  0
 24 27  1  0  0  0  0
 25 29  1  0  0  0  0
 25 27  1  0  0  0  0
 27 28  1  0  0  0  0
 29 31  1  0  0  0  0
 29 30  1  0  0  0  0
 32  6  1  1  0  0  0
 32 33  1  0  0  0  0
 32 38  1  0  0  0  0
 33 34  1  0  0  0  0
 34 37  1  0  0  0  0
 34 36  1  0  0  0  0
 34 35  1  0  0  0  0
 35 38  1  0  0  0  0
M  END
>  <MODEL>
1

>  <REMARK>
 VINA RESULT:    -8.688      0.000      0.000
 INTER + INTRA:         -11.478
 INTER:                 -10.720
 INTRA:                  -0.758
 UNBOUND:                -0.758
  4 active torsions:
  status: ('A' for Active; 'I' for Inactive)
    1  A    between atoms: C_3  and  N_20 
    2  A    between atoms: C_13  and  N_15 
    3  A    between atoms: N_20  and  C_22 
    4  A    between atoms: C_23  and  C_33 

>  <COMPND>
    /home/daniil/Downloads/ml_docking_review/databases/Vina/outputs/7R9N_F97/7R9N_F97.pdbqt 

>  <AUTHOR>
    GENERATED BY OPEN BABEL 3.2.1

>  <MASTER>
        0    0    0    0    0    0    0    0   38    0   38    0

$$$$
