../../databases/Vina/outputs/8HFN_XGC/8HFN_XGC1.pdb
 OpenBabel08242616453D

 29 30  0  0  1  0  0  0  0  0999 V2000
   70.7750    0.4880   -1.0980 C   0  0  0  0  0  0  0  0  0  0  0  0
   69.1610    1.1750   -2.7510 C   0  0  0  0  0  0  0  0  0  0  0  0
   68.3150    1.5740   -1.7160 C   0  0  0  0  0  0  0  0  0  0  0  0
   69.9200    0.8590   -0.0720 C   0  0  0  0  0  0  0  0  0  0  0  0
   68.6890    1.4100   -0.3930 C   0  0  0  0  0  0  0  0  0  0  0  0
   70.4060    0.6260   -2.4260 C   0  0  0  0  0  0  0  0  0  0  0  0
   72.3920   -0.0970   -0.7140 S   0  0  0  0  0  0  0  0  0  0  0  0
   73.0940    0.9640   -0.0550 O   0  0  0  0  0  0  0  0  0  0  0  0
   72.9500   -0.6740   -1.8990 O   0  0  0  0  0  0  0  0  0  0  0  0
   72.1890   -1.2340    0.4490 N   0  0  0  0  0  0  0  0  0  0  0  0
   71.6280   -2.4640    0.2780 C   0  0  0  0  0  0  0  0  0  0  0  0
   71.0550   -2.8260   -0.7440 O   0  0  0  0  0  0  0  0  0  0  0  0
   72.5110   -1.0000    1.3880 H   0  0  0  0  0  0  0  0  0  0  0  0
   71.7950   -3.3900    1.4700 C   0  0  1  0  0  0  0  0  0  0  0  0
   72.6830   -2.7800    2.4770 N   0  0  0  0  0  4  0  0  0  0  0  0
   73.2010   -1.9880    2.0970 H   0  0  0  0  0  0  0  0  0  0  0  0
   72.1570   -2.2870    3.1980 H   0  0  0  0  0  0  0  0  0  0  0  0
   73.3050   -3.4830    2.8770 H   0  0  0  0  0  0  0  0  0  0  0  0
   70.4500   -3.7880    2.0640 C   0  0  0  0  0  0  0  0  0  0  0  0
   70.4870   -3.9950    3.8640 S   0  0  0  0  0  0  0  0  0  0  0  0
   68.7360    1.2970   -4.1690 C   0  0  0  0  0  0  0  0  0  0  0  0
   68.4980    2.5330   -4.7650 C   0  0  0  0  0  0  0  0  0  0  0  0
   68.1010    2.7000   -6.0350 N   0  0  0  0  0  0  0  0  0  0  0  0
   67.9310    1.6060   -6.7590 C   0  0  0  0  0  0  0  0  0  0  0  0
   67.9380    3.6280   -6.4250 H   0  0  0  0  0  0  0  0  0  0  0  0
   68.1250    0.3070   -6.2830 C   0  0  0  0  0  0  0  0  0  0  0  0
   68.5340    0.1730   -4.9680 C   0  0  0  0  0  0  0  0  0  0  0  0
   67.5740    1.7290   -8.0530 O   0  0  0  0  0  0  0  0  0  0  0  0
   67.1350    0.5520   -8.7250 C   0  0  0  0  0  0  0  0  0  0  0  0
  1  6  2  0  0  0  0
  1  7  1  0  0  0  0
  1  4  1  0  0  0  0
  2 21  1  0  0  0  0
  2  6  1  0  0  0  0
  2  3  2  0  0  0  0
  3  5  1  0  0  0  0
  4  5  2  0  0  0  0
  7  9  2  0  0  0  0
  7  8  2  0  0  0  0
  7 10  1  0  0  0  0
 10 11  1  0  0  0  0
 10 13  1  0  0  0  0
 11 12  2  0  0  0  0
 11 14  1  0  0  0  0
 14 19  1  1  0  0  0
 14 15  1  0  0  0  0
 15 16  1  0  0  0  0
 15 18  1  0  0  0  0
 15 17  1  0  0  0  0
 19 20  1  0  0  0  0
 21 27  2  0  0  0  0
 21 22  1  0  0  0  0
 22 23  1  0  0  0  0
 23 24  1  0  0  0  0
 23 25  1  0  0  0  0
 24 28  1  0  0  0  0
 24 26  2  0  0  0  0
 26 27  1  0  0  0  0
 28 29  1  0  0  0  0
M  END
>  <MODEL>
1

>  <REMARK>
 VINA RESULT:    -8.250      0.000      0.000
 INTER + INTRA:         -11.964
 INTER:                 -11.385
 INTRA:                  -0.579
 UNBOUND:                -0.579
  7 active torsions:
  status: ('A' for Active; 'I' for Inactive)
       I    between atoms: C_1  and  N_16 
    1  A    between atoms: C_1  and  C_11 
    2  A    between atoms: C_4  and  O_25 
    3  A    between atoms: C_6  and  S_29 
    4  A    between atoms: C_7  and  C_12 
    5  A    between atoms: C_11  and  N_20 
    6  A    between atoms: C_11  and  C_14 
    7  A    between atoms: N_16  and  S_29 

>  <COMPND>
    /home/daniil/Downloads/ml_docking_review/databases/Vina/outputs/8HFN_XGC/8HFN_XGC.pdbqt 

>  <AUTHOR>
    GENERATED BY OPEN BABEL 3.2.1

>  <MASTER>
        0    0    0    0    0    0    0    0   29    0   29    0

$$$$
