../../databases/Vina/outputs/7BHX_TO5/7BHX_TO51.pdb
 OpenBabel08242612033D

 23 25  0  0  1  0  0  0  0  0999 V2000
   39.3500   40.6180   14.2680 C   0  0  1  0  0  0  0  0  0  0  0  0
   38.4990   39.9980   12.1850 C   0  0  0  0  0  0  0  0  0  0  0  0
   37.0180   41.0610   13.8240 C   0  0  0  0  0  0  0  0  0  0  0  0
   35.7450   41.4960   14.1910 C   0  0  0  0  0  0  0  0  0  0  0  0
   35.5180   41.9060   15.4940 C   0  0  0  0  0  0  0  0  0  0  0  0
   36.5210   41.8920   16.4440 C   0  0  0  0  0  0  0  0  0  0  0  0
   37.7870   41.4510   16.0890 C   0  0  0  0  0  0  0  0  0  0  0  0
   38.0520   41.0360   14.7790 C   0  0  0  0  0  0  0  0  0  0  0  0
   33.9320   42.4690   15.9410 Cl  0  0  0  0  0  0  0  0  0  0  0  0
   37.2820   40.6240   12.5190 N   0  0  0  0  0  0  0  0  0  0  0  0
   38.5930   39.4660   11.0850 O   0  0  0  0  0  0  0  0  0  0  0  0
   39.5280   40.0130   13.0870 N   0  0  0  0  0  0  0  0  0  0  0  0
   40.4180   39.5690   12.8630 H   0  0  0  0  0  0  0  0  0  0  0  0
   36.2410   40.6750   11.5340 C   0  0  0  0  0  0  0  0  0  0  0  0
   36.1540   41.7470   10.6920 C   0  0  0  0  0  0  0  0  0  0  0  0
   35.2120   41.8610    9.7510 N   0  0  0  0  0  0  0  0  0  0  0  0
   34.3160   40.8680    9.6430 C   0  0  0  0  0  0  0  0  0  0  0  0
   35.1750   42.6740    9.1380 H   0  0  0  0  0  0  0  0  0  0  0  0
   34.3300   39.7400   10.4370 C   0  0  0  0  0  0  0  0  0  0  0  0
   35.3130   39.6390   11.4100 C   0  0  0  0  0  0  0  0  0  0  0  0
   40.5280   40.8640   14.9080 N   0  0  0  0  0  0  0  0  0  0  0  0
   41.3150   42.1120   14.7880 C   0  0  0  0  0  0  0  0  0  0  0  0
   41.2160   39.8100   15.6530 C   0  0  0  0  0  0  0  0  0  0  0  0
  1 12  1  0  0  0  0
  1  8  1  0  0  0  0
  1 21  1  6  0  0  0
  2 11  2  0  0  0  0
  2 10  1  0  0  0  0
  2 12  1  0  0  0  0
  3 10  1  0  0  0  0
  3  4  2  0  0  0  0
  3  8  1  0  0  0  0
  4  5  1  0  0  0  0
  5  9  1  0  0  0  0
  5  6  2  0  0  0  0
  6  7  1  0  0  0  0
  7  8  2  0  0  0  0
 10 14  1  0  0  0  0
 12 13  1  0  0  0  0
 14 15  1  0  0  0  0
 14 20  2  0  0  0  0
 15 16  1  0  0  0  0
 16 18  1  0  0  0  0
 16 17  1  0  0  0  0
 17 19  2  0  0  0  0
 19 20  1  0  0  0  0
 21 22  1  0  0  0  0
 21 23  1  0  0  0  0
M  END
>  <MODEL>
1

>  <REMARK>
 VINA RESULT:    -5.790      0.000      0.000
 INTER + INTRA:          -6.718
 INTER:                  -6.467
 INTRA:                  -0.251
 UNBOUND:                -0.251
  2 active torsions:
  status: ('A' for Active; 'I' for Inactive)
    1  A    between atoms: C_2  and  N_13 
    2  A    between atoms: N_15  and  C_19 

>  <COMPND>
    /home/daniil/Downloads/ml_docking_review/databases/Vina/outputs/7BHX_TO5/7BHX_TO5.pdbqt 

>  <AUTHOR>
    GENERATED BY OPEN BABEL 3.2.1

>  <MASTER>
        0    0    0    0    0    0    0    0   23    0   23    0

$$$$
