../../databases/Vina/outputs/7TXP_0FX/7TXP_0FX1.pdb
 OpenBabel08242612033D

 42 44  0  0  1  0  0  0  0  0999 V2000
  -12.5500  -18.3530   26.8760 P   0  0  1  0  0  0  0  0  0  0  0  0
  -12.2280  -18.8150   25.4990 O   0  0  0  0  0  0  0  0  0  0  0  0
  -13.0290  -16.9460   27.0350 O   0  0  0  0  0  0  0  0  0  0  0  0
  -13.6220  -19.3670   27.4240 O   0  0  0  0  0  0  0  0  0  0  0  0
  -13.3460  -20.7470   27.6510 C   0  0  0  0  0  0  0  0  0  0  0  0
  -14.0780  -21.4800   26.5590 C   0  0  1  0  0  0  0  0  0  0  0  0
  -13.4310  -22.7640   26.3860 O   0  0  0  0  0  0  0  0  0  0  0  0
  -14.4410  -23.7670   26.3950 C   0  0  2  0  0  0  0  0  0  0  0  0
  -15.5600  -23.1970   27.2510 C   0  0  0  0  0  0  0  0  0  0  0  0
  -15.5520  -21.7150   26.9100 C   0  0  2  0  0  0  0  0  0  0  0  0
  -13.8090  -24.9980   26.9060 N   0  0  0  0  0  0  0  0  0  0  0  0
  -12.9570  -24.9200   27.9810 C   0  0  0  0  0  0  0  0  0  0  0  0
  -12.3760  -26.0020   28.5360 C   0  0  0  0  0  0  0  0  0  0  0  0
  -11.4330  -25.9040   29.6880 C   0  0  0  0  0  0  0  0  0  0  0  0
  -12.6440  -27.2960   27.9480 C   0  0  0  0  0  0  0  0  0  0  0  0
  -13.5220  -27.2930   26.8920 N   0  0  0  0  0  0  0  0  0  0  0  0
  -12.1890  -28.3890   28.3330 O   0  0  0  0  0  0  0  0  0  0  0  0
  -14.1030  -26.1990   26.3080 C   0  0  0  0  0  0  0  0  0  0  0  0
  -13.7690  -28.2030   26.5010 H   0  0  0  0  0  0  0  0  0  0  0  0
  -14.8520  -26.3050   25.3580 O   0  0  0  0  0  0  0  0  0  0  0  0
  -16.4480  -21.4560   25.8400 O   0  0  0  0  0  0  0  0  0  0  0  0
  -17.3200  -21.2020   26.1190 H   0  0  0  0  0  0  0  0  0  0  0  0
  -11.2770  -18.5690   27.8130 O   0  0  0  0  0  0  0  0  0  0  0  0
  -10.7030  -17.7340   29.0510 P   0  0  2  0  0  0  0  0  0  0  0  0
   -9.6970  -18.5540   29.7890 O   0  0  0  0  0  0  0  0  0  0  0  0
  -11.8710  -17.2500   29.8480 O   0  0  0  0  0  0  0  0  0  0  0  0
   -9.9120  -16.5470   28.3080 O   0  0  0  0  0  0  0  0  0  0  0  0
  -10.0590  -15.2410   28.7490 C   0  0  2  0  0  0  0  0  0  0  0  0
  -10.0380  -14.3290   27.5590 C   0  0  1  0  0  0  0  0  0  0  0  0
   -8.6890  -14.3890   26.8550 C   0  0  2  0  0  0  0  0  0  0  0  0
   -7.5720  -14.1210   27.8520 C   0  0  1  0  0  0  0  0  0  0  0  0
   -7.6760  -15.0240   29.0870 C   0  0  1  0  0  0  0  0  0  0  0  0
   -6.7490  -14.6530   30.2330 C   0  0  0  0  0  0  0  0  0  0  0  0
   -8.9980  -14.9360   29.6390 O   0  0  0  0  0  0  0  0  0  0  0  0
  -11.0670  -14.6500   26.6170 O   0  0  0  0  0  0  0  0  0  0  0  0
  -11.7480  -13.9900   26.6680 H   0  0  0  0  0  0  0  0  0  0  0  0
   -8.6070  -13.4500   25.7870 O   0  0  0  0  0  0  0  0  0  0  0  0
   -9.4080  -13.4810   25.2760 H   0  0  0  0  0  0  0  0  0  0  0  0
   -6.2860  -14.2980   27.1680 N   0  0  0  0  0  4  0  0  0  0  0  0
   -6.3960  -14.4790   26.1700 H   0  0  0  0  0  0  0  0  0  0  0  0
   -5.7580  -13.4290   27.0950 H   0  0  0  0  0  0  0  0  0  0  0  0
   -5.7660  -15.0340   27.6460 H   0  0  0  0  0  0  0  0  0  0  0  0
  1  2  2  6  0  0  0
  1  3  1  0  0  0  0
  1  4  1  0  0  0  0
  1 23  1  0  0  0  0
  4  5  1  0  0  0  0
  6  5  1  1  0  0  0
  6  7  1  0  0  0  0
  6 10  1  0  0  0  0
  7  8  1  0  0  0  0
  8 11  1  1  0  0  0
  8  9  1  0  0  0  0
  9 10  1  0  0  0  0
 10 21  1  6  0  0  0
 11 18  1  0  0  0  0
 11 12  1  0  0  0  0
 12 13  2  0  0  0  0
 13 15  1  0  0  0  0
 13 14  1  0  0  0  0
 15 16  1  0  0  0  0
 15 17  2  0  0  0  0
 16 18  1  0  0  0  0
 16 19  1  0  0  0  0
 18 20  2  0  0  0  0
 21 22  1  0  0  0  0
 23 24  1  0  0  0  0
 24 27  1  0  0  0  0
 24 25  2  1  0  0  0
 24 26  1  0  0  0  0
 28 27  1  6  0  0  0
 28 29  1  0  0  0  0
 28 34  1  0  0  0  0
 29 35  1  6  0  0  0
 29 30  1  0  0  0  0
 30 37  1  6  0  0  0
 30 31  1  0  0  0  0
 31 39  1  6  0  0  0
 31 32  1  0  0  0  0
 32 34  1  0  0  0  0
 32 33  1  1  0  0  0
 35 36  1  0  0  0  0
 37 38  1  0  0  0  0
 39 40  1  0  0  0  0
 39 41  1  0  0  0  0
 39 42  1  0  0  0  0
M  END
>  <MODEL>
1

>  <REMARK>
 VINA RESULT:    -7.893      0.000      0.000
 INTER + INTRA:         -13.926
 INTER:                 -12.508
 INTRA:                  -1.418
 UNBOUND:                -1.418
  12 active torsions:
  status: ('A' for Active; 'I' for Inactive)
    1  A    between atoms: P_2  and  O_20 
    2  A    between atoms: P_2  and  O_4 
    3  A    between atoms: O_4  and  C_5 
    4  A    between atoms: C_6  and  O_7 
    5  A    between atoms: C_9  and  O_10 
    6  A    between atoms: C_12  and  N_13 
    7  A    between atoms: O_20  and  P_21 
    8  A    between atoms: P_21  and  O_24 
    9  A    between atoms: O_24  and  C_25 
   10  A    between atoms: C_25  and  C_26 
   11  A    between atoms: C_28  and  O_29 
   12  A    between atoms: C_32  and  N_33 

>  <COMPND>
    /home/daniil/Downloads/ml_docking_review/databases/Vina/outputs/7TXP_0FX/7TXP_0FX.pdbqt 

>  <AUTHOR>
    GENERATED BY OPEN BABEL 3.2.1

>  <MASTER>
        0    0    0    0    0    0    0    0   42    0   42    0

$$$$
