../../databases/Vina/outputs/7SSM_B7L/7SSM_B7L1.pdb
 OpenBabel08242612033D

 28 31  0  0  0  0  0  0  0  0999 V2000
  -14.7060  -21.6440   -0.2330 C   0  0  0  0  0  0  0  0  0  0  0  0
  -15.8300  -22.3600   -0.2890 N   0  0  0  0  0  0  0  0  0  0  0  0
  -15.8150  -23.3380   -0.0030 H   0  0  0  0  0  0  0  0  0  0  0  0
  -14.6660  -20.4650   -0.5960 O   0  0  0  0  0  0  0  0  0  0  0  0
  -17.0710  -21.7730   -0.7480 C   0  0  0  0  0  0  0  0  0  0  0  0
  -18.2680  -22.5910   -0.4380 C   0  0  0  0  0  0  0  0  0  0  0  0
  -18.4890  -22.8380    0.9090 O   0  0  0  0  0  0  0  0  0  0  0  0
  -19.6470  -23.5710    0.9790 C   0  0  0  0  0  0  0  0  0  0  0  0
  -20.1590  -23.8050   -0.2990 C   0  0  0  0  0  0  0  0  0  0  0  0
  -20.3050  -24.0020    2.1400 C   0  0  0  0  0  0  0  0  0  0  0  0
  -19.2460  -23.1580   -1.2030 C   0  0  0  0  0  0  0  0  0  0  0  0
  -21.3710  -24.4890   -0.4160 C   0  0  0  0  0  0  0  0  0  0  0  0
  -22.0390  -24.9210    0.7200 C   0  0  0  0  0  0  0  0  0  0  0  0
  -21.5150  -24.6840    1.9870 C   0  0  0  0  0  0  0  0  0  0  0  0
  -19.7560  -23.7840    3.5270 C   0  0  0  0  0  0  0  0  0  0  0  0
  -20.2090  -24.5250    4.4920 O   0  0  0  0  0  0  0  0  0  0  0  0
  -18.8940  -22.9700    3.7500 O   0  0  0  0  0  0  0  0  0  0  0  0
  -13.4740  -22.3180    0.2780 C   0  0  0  0  0  0  0  0  0  0  0  0
  -13.1770  -23.6940    0.3150 C   0  0  0  0  0  0  0  0  0  0  0  0
  -11.9880  -23.9560    0.8440 N   0  0  0  0  0  0  0  0  0  0  0  0
  -11.4620  -22.6980    1.1760 N   0  0  0  0  0  0  0  0  0  0  0  0
  -11.5530  -24.8690    0.9790 H   0  0  0  0  0  0  0  0  0  0  0  0
  -10.2590  -22.4180    1.7720 C   0  0  0  0  0  0  0  0  0  0  0  0
  -12.3240  -21.6860    0.8480 C   0  0  0  0  0  0  0  0  0  0  0  0
   -9.9580  -21.1240    2.0280 C   0  0  0  0  0  0  0  0  0  0  0  0
  -10.8780  -20.1390    1.6690 C   0  0  0  0  0  0  0  0  0  0  0  0
  -12.0460  -20.3780    1.0900 N   0  0  0  0  0  0  0  0  0  0  0  0
  -12.6930  -19.6300    0.8410 H   0  0  0  0  0  0  0  0  0  0  0  0
  1  4  2  0  0  0  0
  1  2  1  0  0  0  0
  1 18  1  0  0  0  0
  2  5  1  0  0  0  0
  2  3  1  0  0  0  0
  5  6  1  0  0  0  0
  6 11  2  0  0  0  0
  6  7  1  0  0  0  0
  7  8  1  0  0  0  0
  8  9  2  0  0  0  0
  8 10  1  0  0  0  0
  9 11  1  0  0  0  0
  9 12  1  0  0  0  0
 10 14  2  0  0  0  0
 10 15  1  0  0  0  0
 12 13  2  0  0  0  0
 13 14  1  0  0  0  0
 15 17  2  0  0  0  0
 15 16  1  0  0  0  0
 18 19  1  0  0  0  0
 18 24  2  0  0  0  0
 19 20  1  0  0  0  0
 20 22  1  0  0  0  0
 20 21  1  0  0  0  0
 21 24  1  0  0  0  0
 21 23  1  0  0  0  0
 23 25  1  0  0  0  0
 24 27  1  0  0  0  0
 25 26  2  0  0  0  0
 26 27  1  0  0  0  0
 27 28  1  0  0  0  0
M  END
>  <MODEL>
1

>  <REMARK>
 VINA RESULT:    -8.649      0.000      0.000
 INTER + INTRA:         -11.090
 INTER:                 -10.671
 INTRA:                  -0.420
 UNBOUND:                -0.420
  4 active torsions:
  status: ('A' for Active; 'I' for Inactive)
    1  A    between atoms: C_3  and  C_8 
    2  A    between atoms: C_10  and  C_11 
       I    between atoms: C_11  and  N_12 
    3  A    between atoms: N_12  and  C_15 
    4  A    between atoms: C_15  and  C_16 

>  <COMPND>
    /home/daniil/Downloads/ml_docking_review/databases/Vina/outputs/7SSM_B7L/7SSM_B7L.pdbqt 

>  <AUTHOR>
    GENERATED BY OPEN BABEL 3.2.1

>  <MASTER>
        0    0    0    0    0    0    0    0   28    0   28    0

$$$$
