../../databases/Vina/outputs/7VQ9_ISY/7VQ9_ISY1.pdb
 OpenBabel08242612033D

 14 13  0  0  0  0  0  0  0  0999 V2000
   26.1470   -2.3830   29.6360 P   0  0  1  0  0  0  0  0  0  0  0  0
   26.2450   -3.4580   30.6830 O   0  0  0  0  0  0  0  0  0  0  0  0
   24.8580   -1.6400   29.3490 O   0  0  0  0  0  0  0  0  0  0  0  0
   27.5160   -0.8870   30.0520 S   0  0  0  0  0  0  0  0  0  0  0  0
   26.4900    0.4150   29.3810 C   0  0  0  0  0  0  0  0  0  0  0  0
   27.2420    1.3820   28.6290 C   0  0  0  0  0  0  0  0  0  0  0  0
   27.9050    2.4160   29.4920 C   0  0  0  0  0  0  0  0  0  0  0  0
   27.2600    3.0110   30.4930 C   0  0  0  0  0  0  0  0  0  0  0  0
   29.2550    2.7810   29.1290 C   0  0  0  0  0  0  0  0  0  0  0  0
   26.6490   -2.8380   28.2440 O   0  0  0  0  0  0  0  0  0  0  0  0
   27.5400   -4.0520   27.7670 P   0  0  0  0  0  0  0  0  0  0  0  0
   27.4550   -4.1140   26.2680 O   0  0  0  0  0  0  0  0  0  0  0  0
   28.9870   -3.7810   28.2210 O   0  0  0  0  0  0  0  0  0  0  0  0
   27.0110   -5.3520   28.2640 O   0  0  0  0  0  0  0  0  0  0  0  0
  1 10  1  0  0  0  0
  1  3  2  6  0  0  0
  1  4  1  0  0  0  0
  1  2  1  0  0  0  0
  4  5  1  0  0  0  0
  5  6  1  0  0  0  0
  6  7  1  0  0  0  0
  7  9  1  0  0  0  0
  7  8  2  0  0  0  0
 10 11  1  0  0  0  0
 11 12  2  0  0  0  0
 11 13  1  0  0  0  0
 11 14  1  0  0  0  0
M  END
>  <MODEL>
1

>  <REMARK>
 VINA RESULT:    -6.695      0.000      0.000
 INTER + INTRA:          -9.324
 INTER:                  -9.043
 INTRA:                  -0.281
 UNBOUND:                -0.281
  6 active torsions:
  status: ('A' for Active; 'I' for Inactive)
    1  A    between atoms: P_1  and  O_2 
    2  A    between atoms: O_2  and  P_3 
    3  A    between atoms: P_3  and  S_9 
    4  A    between atoms: S_9  and  C_10 
    5  A    between atoms: C_10  and  C_11 
    6  A    between atoms: C_11  and  C_12 

>  <COMPND>
    /home/daniil/Downloads/ml_docking_review/databases/Vina/outputs/7VQ9_ISY/7VQ9_ISY.pdbqt 

>  <AUTHOR>
    GENERATED BY OPEN BABEL 3.2.1

>  <MASTER>
        0    0    0    0    0    0    0    0   14    0   14    0

$$$$
