../../databases/Vina/outputs/7L81_UD4/7L81_UD41.pdb
 OpenBabel08242616453D

 46 48  0  0  1  0  0  0  0  0999 V2000
  -11.2480  -20.5090   17.1530 O   0  0  0  0  0  0  0  0  0  0  0  0
  -10.0190  -19.4630   17.1850 P   0  0  2  0  0  0  0  0  0  0  0  0
   -8.7970  -20.1490   16.6780 O   0  0  0  0  0  0  0  0  0  0  0  0
  -10.0620  -18.8430   18.5190 O   0  0  0  0  0  0  0  0  0  0  0  0
  -10.4420  -18.4650   16.0280 O   0  0  0  0  0  0  0  0  0  0  0  0
  -11.2650  -17.3250   16.2470 C   0  0  2  0  0  0  0  0  0  0  0  0
  -12.0560  -17.0320   14.9850 C   0  0  1  0  0  0  0  0  0  0  0  0
  -11.1260  -16.5970   13.8570 C   0  0  2  0  0  0  0  0  0  0  0  0
  -10.2940  -15.4140   14.3210 C   0  0  1  0  0  0  0  0  0  0  0  0
   -9.5420  -15.7720   15.6010 C   0  0  2  0  0  0  0  0  0  0  0  0
  -10.4750  -16.2110   16.5980 O   0  0  0  0  0  0  0  0  0  0  0  0
   -8.7800  -14.6420   16.2270 C   0  0  0  0  0  0  0  0  0  0  0  0
  -12.8600  -18.1840   14.6440 N   0  0  0  0  0  0  0  0  0  0  0  0
  -14.0900  -18.4040   15.1140 C   0  0  0  0  0  0  0  0  0  0  0  0
  -14.5970  -17.6720   15.9690 O   0  0  0  0  0  0  0  0  0  0  0  0
  -14.8190  -19.5830   14.5380 C   0  0  0  0  0  0  0  0  0  0  0  0
  -12.4630  -18.8730   14.0050 H   0  0  0  0  0  0  0  0  0  0  0  0
  -11.8770  -16.2490   12.6920 O   0  0  0  0  0  0  0  0  0  0  0  0
  -12.8100  -16.2920   12.8700 H   0  0  0  0  0  0  0  0  0  0  0  0
   -9.3460  -15.0170   13.2780 N   0  0  0  0  0  4  0  0  0  0  0  0
   -8.8840  -15.8230   12.8580 H   0  0  0  0  0  0  0  0  0  0  0  0
   -9.8220  -14.6650   12.4470 H   0  0  0  0  0  0  0  0  0  0  0  0
   -8.6750  -14.3430   13.6450 H   0  0  0  0  0  0  0  0  0  0  0  0
  -11.6880  -21.7640   16.2890 P   0  0  1  0  0  0  0  0  0  0  0  0
  -11.8480  -21.3170   14.8680 O   0  0  0  0  0  0  0  0  0  0  0  0
  -10.7980  -22.9210   16.5890 O   0  0  0  0  0  0  0  0  0  0  0  0
  -13.1090  -22.0850   16.8760 O   0  0  0  0  0  0  0  0  0  0  0  0
  -13.6750  -21.3260   17.9340 C   0  0  0  0  0  0  0  0  0  0  0  0
  -13.8920  -22.2700   19.0900 C   0  0  2  0  0  0  0  0  0  0  0  0
  -13.8030  -23.7650   18.7470 C   0  0  2  0  0  0  0  0  0  0  0  0
  -15.2660  -24.2210   18.7480 C   0  0  2  0  0  0  0  0  0  0  0  0
  -15.8460  -23.2960   19.8150 C   0  0  1  0  0  0  0  0  0  0  0  0
  -15.2220  -22.0460   19.5980 O   0  0  0  0  0  0  0  0  0  0  0  0
  -12.9930  -24.4950   19.6590 O   0  0  0  0  0  0  0  0  0  0  0  0
  -13.4970  -24.9180   20.3450 H   0  0  0  0  0  0  0  0  0  0  0  0
  -15.4510  -25.5790   19.0890 O   0  0  0  0  0  0  0  0  0  0  0  0
  -16.2280  -25.6990   19.6230 H   0  0  0  0  0  0  0  0  0  0  0  0
  -17.3040  -23.1230   19.6980 N   0  0  0  0  0  0  0  0  0  0  0  0
  -18.0660  -23.3830   20.8320 C   0  0  0  0  0  0  0  0  0  0  0  0
  -19.4250  -23.3120   20.6350 N   0  0  0  0  0  0  0  0  0  0  0  0
  -17.5870  -23.6830   21.9090 O   0  0  0  0  0  0  0  0  0  0  0  0
  -20.0760  -22.9720   19.4760 C   0  0  0  0  0  0  0  0  0  0  0  0
  -20.0130  -23.5370   21.4390 H   0  0  0  0  0  0  0  0  0  0  0  0
  -19.2270  -22.7150   18.3500 C   0  0  0  0  0  0  0  0  0  0  0  0
  -21.3070  -22.9210   19.5010 O   0  0  0  0  0  0  0  0  0  0  0  0
  -17.8950  -22.8050   18.4920 C   0  0  0  0  0  0  0  0  0  0  0  0
  1 24  1  0  0  0  0
  1  2  1  0  0  0  0
  2  5  1  0  0  0  0
  2  3  2  6  0  0  0
  2  4  1  0  0  0  0
  6  5  1  6  0  0  0
  6  7  1  0  0  0  0
  6 11  1  0  0  0  0
  7  8  1  0  0  0  0
  7 13  1  6  0  0  0
  8 18  1  6  0  0  0
  8  9  1  0  0  0  0
  9 20  1  6  0  0  0
  9 10  1  0  0  0  0
 10 12  1  1  0  0  0
 10 11  1  0  0  0  0
 13 17  1  0  0  0  0
 13 14  1  0  0  0  0
 14 16  1  0  0  0  0
 14 15  2  0  0  0  0
 18 19  1  0  0  0  0
 20 22  1  0  0  0  0
 20 21  1  0  0  0  0
 20 23  1  0  0  0  0
 24 25  2  6  0  0  0
 24 26  1  0  0  0  0
 24 27  1  0  0  0  0
 27 28  1  0  0  0  0
 29 28  1  6  0  0  0
 29 30  1  0  0  0  0
 29 33  1  0  0  0  0
 30 31  1  0  0  0  0
 30 34  1  1  0  0  0
 31 36  1  1  0  0  0
 31 32  1  0  0  0  0
 32 33  1  0  0  0  0
 32 38  1  6  0  0  0
 34 35  1  0  0  0  0
 36 37  1  0  0  0  0
 38 46  1  0  0  0  0
 38 39  1  0  0  0  0
 39 40  1  0  0  0  0
 39 41  2  0  0  0  0
 40 42  1  0  0  0  0
 40 43  1  0  0  0  0
 42 44  1  0  0  0  0
 42 45  2  0  0  0  0
 44 46  2  0  0  0  0
M  END
>  <MODEL>
1

>  <REMARK>
 VINA RESULT:    -7.756      0.000      0.000
 INTER + INTRA:         -14.896
 INTER:                 -12.743
 INTRA:                  -2.153
 UNBOUND:                -2.153
  13 active torsions:
  status: ('A' for Active; 'I' for Inactive)
    1  A    between atoms: N_4  and  C_44 
       I    between atoms: C_9  and  N_11 
    2  A    between atoms: N_11  and  C_13 
    3  A    between atoms: C_14  and  O_15 
    4  A    between atoms: C_17  and  N_18 
    5  A    between atoms: C_25  and  O_26 
    6  A    between atoms: O_26  and  P_27 
    7  A    between atoms: P_27  and  O_30 
    8  A    between atoms: O_30  and  P_31 
    9  A    between atoms: P_31  and  O_34 
   10  A    between atoms: O_34  and  C_35 
   11  A    between atoms: C_35  and  C_36 
   12  A    between atoms: C_38  and  O_39 
   13  A    between atoms: C_41  and  O_42 

>  <COMPND>
    /home/daniil/Downloads/ml_docking_review/databases/Vina/outputs/7L81_UD4/7L81_UD4.pdbqt 

>  <AUTHOR>
    GENERATED BY OPEN BABEL 3.2.1

>  <MASTER>
        0    0    0    0    0    0    0    0   46    0   46    0

$$$$
