../../databases/Vina/outputs/7PRI_7TI/7PRI_7TI1.pdb
 OpenBabel08242612043D

 26 26  0  0  0  0  0  0  0  0999 V2000
   50.4460  -44.7940  -13.2630 C   0  0  0  0  0  0  0  0  0  0  0  0
   49.2200  -44.2370  -12.9380 C   0  0  0  0  0  0  0  0  0  0  0  0
   48.8020  -44.1390  -11.6100 C   0  0  0  0  0  0  0  0  0  0  0  0
   49.6580  -44.5660  -10.5630 C   0  0  0  0  0  0  0  0  0  0  0  0
   50.8690  -45.1750  -10.9310 C   0  0  0  0  0  0  0  0  0  0  0  0
   51.2530  -45.3450  -12.2640 C   0  0  0  0  0  0  0  0  0  0  0  0
   51.0240  -44.6590  -14.9690 S   0  0  0  0  0  0  0  0  0  0  0  0
   52.2700  -43.9160  -14.9580 O   0  0  0  0  0  0  0  0  0  0  0  0
   51.0770  -45.9890  -15.4860 O   0  0  0  0  0  0  0  0  0  0  0  0
   49.9650  -43.8130  -15.7440 N   0  0  0  0  0  0  0  0  0  0  0  0
   49.9840  -42.7990  -15.8490 H   0  0  0  0  0  0  0  0  0  0  0  0
   49.2630  -44.4510  -16.1180 H   0  0  0  0  0  0  0  0  0  0  0  0
   52.2750  -46.3200  -12.6980 C   0  0  0  0  0  0  0  0  0  0  0  0
   51.5840  -47.9360  -13.0390 Cl  0  0  0  0  0  0  0  0  0  0  0  0
   53.5700  -46.0880  -12.7820 C   0  0  0  0  0  0  0  0  0  0  0  0
   54.7600  -47.2090  -13.3850 Cl  0  0  0  0  0  0  0  0  0  0  0  0
   54.1750  -44.6090  -12.1610 Cl  0  0  0  0  0  0  0  0  0  0  0  0
   47.1630  -43.5470  -11.2730 S   0  0  0  0  0  0  0  0  0  0  0  0
   46.4890  -44.5600  -10.5000 O   0  0  0  0  0  0  0  0  0  0  0  0
   46.5710  -43.1450  -12.5280 O   0  0  0  0  0  0  0  0  0  0  0  0
   47.2650  -42.2270  -10.3740 N   0  0  0  0  0  0  0  0  0  0  0  0
   46.9240  -41.3070  -10.6520 H   0  0  0  0  0  0  0  0  0  0  0  0
   47.7230  -42.4630   -9.4940 H   0  0  0  0  0  0  0  0  0  0  0  0
   49.3430  -44.4260   -9.2340 N   0  0  0  0  0  0  0  0  0  0  0  0
   49.4190  -43.5400   -8.7350 H   0  0  0  0  0  0  0  0  0  0  0  0
   49.0030  -45.2310   -8.7080 H   0  0  0  0  0  0  0  0  0  0  0  0
  1  7  1  0  0  0  0
  1  2  2  0  0  0  0
  1  6  1  0  0  0  0
  2  3  1  0  0  0  0
  3 18  1  0  0  0  0
  3  4  2  0  0  0  0
  4  5  1  0  0  0  0
  4 24  1  0  0  0  0
  5  6  2  0  0  0  0
  6 13  1  0  0  0  0
  7 10  1  0  0  0  0
  7  9  2  0  0  0  0
  7  8  2  0  0  0  0
 10 12  1  0  0  0  0
 10 11  1  0  0  0  0
 13 14  1  0  0  0  0
 13 15  2  0  0  0  0
 15 16  1  0  0  0  0
 15 17  1  0  0  0  0
 18 20  2  0  0  0  0
 18 19  2  0  0  0  0
 18 21  1  0  0  0  0
 21 22  1  0  0  0  0
 21 23  1  0  0  0  0
 24 25  1  0  0  0  0
 24 26  1  0  0  0  0
M  END
>  <MODEL>
1

>  <REMARK>
 VINA RESULT:    -6.316      0.000      0.000
 INTER + INTRA:          -8.252
 INTER:                  -7.977
 INTRA:                  -0.274
 UNBOUND:                -0.274
  6 active torsions:
  status: ('A' for Active; 'I' for Inactive)
    1  A    between atoms: S_3  and  C_8 
    2  A    between atoms: S_3  and  N_5 
    3  A    between atoms: C_10  and  S_11 
    4  A    between atoms: S_11  and  N_13 
    5  A    between atoms: C_17  and  N_18 
    6  A    between atoms: C_22  and  C_23 

>  <COMPND>
    /home/daniil/Downloads/ml_docking_review/databases/Vina/outputs/7PRI_7TI/7PRI_7TI.pdbqt 

>  <AUTHOR>
    GENERATED BY OPEN BABEL 3.2.1

>  <MASTER>
        0    0    0    0    0    0    0    0   26    0   26    0

$$$$
