../../databases/Vina/outputs/6VTA_AKN/6VTA_AKN1.pdb
 OpenBabel08242612033D

 61 63  0  0  1  0  0  0  0  0999 V2000
   91.8870    9.0410   32.9040 C   0  0  2  0  0  0  0  0  0  0  0  0
   91.5130    9.4730   34.3230 C   0  0  0  0  0  0  0  0  0  0  0  0
   91.6490    8.2870   35.2950 C   0  0  1  0  0  0  0  0  0  0  0  0
   93.0630    7.6990   35.2590 C   0  0  2  0  0  0  0  0  0  0  0  0
   93.3950    7.2550   33.8260 C   0  0  1  0  0  0  0  0  0  0  0  0
   93.2900    8.4250   32.8280 C   0  0  1  0  0  0  0  0  0  0  0  0
   93.0030    6.6210   36.2050 O   0  0  0  0  0  0  0  0  0  0  0  0
   94.1070    6.3400   36.9900 C   0  0  2  0  0  0  0  0  0  0  0  0
   94.0870    4.8440   37.2670 C   0  0  1  0  0  0  0  0  0  0  0  0
   92.8800    4.4910   38.0660 C   0  0  2  0  0  0  0  0  0  0  0  0
   92.8630    5.2200   39.3740 C   0  0  1  0  0  0  0  0  0  0  0  0
   92.9330    6.7280   39.1360 C   0  0  2  0  0  0  0  0  0  0  0  0
   94.0740    7.0760   38.2850 O   0  0  0  0  0  0  0  0  0  0  0  0
   94.0620    4.1620   36.0070 O   0  0  0  0  0  0  0  0  0  0  0  0
   94.6200    4.6390   35.4040 H   0  0  0  0  0  0  0  0  0  0  0  0
   92.9120    3.0670   38.2990 O   0  0  0  0  0  0  0  0  0  0  0  0
   92.3270    2.8820   39.0230 H   0  0  0  0  0  0  0  0  0  0  0  0
   91.6400    4.9670   40.0740 O   0  0  0  0  0  0  0  0  0  0  0  0
   91.0110    4.6700   39.4280 H   0  0  0  0  0  0  0  0  0  0  0  0
   93.0980    7.4650   40.4280 C   0  0  0  0  0  0  0  0  0  0  0  0
   94.5060    7.4880   40.7870 N   0  0  0  0  0  4  0  0  0  0  0  0
   94.6480    7.4460   41.7970 H   0  0  0  0  0  0  0  0  0  0  0  0
   94.9840    6.6220   40.5380 H   0  0  0  0  0  0  0  0  0  0  0  0
   94.9450    8.3080   40.3690 H   0  0  0  0  0  0  0  0  0  0  0  0
   91.2890    8.7020   36.6550 N   0  0  0  0  0  4  0  0  0  0  0  0
   92.0320    9.2430   37.0980 H   0  0  0  0  0  0  0  0  0  0  0  0
   90.5620    9.4180   36.6550 H   0  0  0  0  0  0  0  0  0  0  0  0
   91.0240    7.8910   37.2120 H   0  0  0  0  0  0  0  0  0  0  0  0
   94.7060    6.7550   33.7070 O   0  0  0  0  0  0  0  0  0  0  0  0
   95.0940    7.2040   32.9660 H   0  0  0  0  0  0  0  0  0  0  0  0
   93.5260    7.8980   31.5300 O   0  0  0  0  0  0  0  0  0  0  0  0
   94.6610    8.3760   30.9130 C   0  0  2  0  0  0  0  0  0  0  0  0
   94.3830    8.6020   29.4390 C   0  0  1  0  0  0  0  0  0  0  0  0
   94.1340    7.3110   28.7220 C   0  0  2  0  0  0  0  0  0  0  0  0
   95.3230    6.3960   28.8770 C   0  0  1  0  0  0  0  0  0  0  0  0
   95.5880    6.1410   30.3570 C   0  0  2  0  0  0  0  0  0  0  0  0
   95.7940    7.4020   31.0960 O   0  0  0  0  0  0  0  0  0  0  0  0
   93.2420    9.4720   29.3060 O   0  0  0  0  0  0  0  0  0  0  0  0
   93.2370    9.8780   28.4460 H   0  0  0  0  0  0  0  0  0  0  0  0
   93.8720    7.5880   27.2710 N   0  0  0  0  0  4  0  0  0  0  0  0
   92.9320    7.3140   26.9890 H   0  0  0  0  0  0  0  0  0  0  0  0
   93.7970    8.5870   27.0760 H   0  0  0  0  0  0  0  0  0  0  0  0
   94.5910    7.1390   26.7050 H   0  0  0  0  0  0  0  0  0  0  0  0
   95.0800    5.1430   28.2250 O   0  0  0  0  0  0  0  0  0  0  0  0
   95.8240    4.5620   28.3350 H   0  0  0  0  0  0  0  0  0  0  0  0
   96.8090    5.2850   30.5520 C   0  0  0  0  0  0  0  0  0  0  0  0
   96.4030    3.9970   30.9460 O   0  0  0  0  0  0  0  0  0  0  0  0
   95.4530    3.9640   30.9530 H   0  0  0  0  0  0  0  0  0  0  0  0
   91.7950   10.2340   32.0520 N   0  0  0  0  0  0  0  0  0  0  0  0
   90.5650   10.5010   31.2930 C   0  0  0  0  0  0  0  0  0  0  0  0
   89.6320    9.7700   31.3460 O   0  0  0  0  0  0  0  0  0  0  0  0
   92.5840   10.8770   31.9870 H   0  0  0  0  0  0  0  0  0  0  0  0
   90.5380   11.7550   30.4350 C   0  0  2  0  0  0  0  0  0  0  0  0
   89.7730   11.4220   29.1250 C   0  0  0  0  0  0  0  0  0  0  0  0
   90.6320   11.8440   27.8920 C   0  0  0  0  0  0  0  0  0  0  0  0
   91.4750   10.6740   27.4910 N   0  0  0  0  0  4  0  0  0  0  0  0
   92.4600   10.7980   27.7280 H   0  0  0  0  0  0  0  0  0  0  0  0
   91.3000    9.8480   28.0630 H   0  0  0  0  0  0  0  0  0  0  0  0
   91.3270   10.5040   26.4960 H   0  0  0  0  0  0  0  0  0  0  0  0
   91.8420   12.0770   30.1300 O   0  0  0  0  0  0  0  0  0  0  0  0
   92.0190   11.7500   29.2560 H   0  0  0  0  0  0  0  0  0  0  0  0
  1 49  1  6  0  0  0
  1  6  1  0  0  0  0
  1  2  1  0  0  0  0
  2  3  1  0  0  0  0
  3  4  1  0  0  0  0
  3 25  1  1  0  0  0
  4  5  1  0  0  0  0
  4  7  1  1  0  0  0
  5  6  1  0  0  0  0
  5 29  1  1  0  0  0
  6 31  1  6  0  0  0
  8  7  1  6  0  0  0
  8  9  1  0  0  0  0
  8 13  1  0  0  0  0
  9 14  1  6  0  0  0
  9 10  1  0  0  0  0
 10 16  1  1  0  0  0
 10 11  1  0  0  0  0
 11 12  1  0  0  0  0
 11 18  1  6  0  0  0
 12 13  1  0  0  0  0
 12 20  1  1  0  0  0
 14 15  1  0  0  0  0
 16 17  1  0  0  0  0
 18 19  1  0  0  0  0
 20 21  1  0  0  0  0
 21 24  1  0  0  0  0
 21 23  1  0  0  0  0
 21 22  1  0  0  0  0
 25 27  1  0  0  0  0
 25 26  1  0  0  0  0
 25 28  1  0  0  0  0
 29 30  1  0  0  0  0
 32 31  1  1  0  0  0
 32 33  1  0  0  0  0
 32 37  1  0  0  0  0
 33 34  1  0  0  0  0
 33 38  1  1  0  0  0
 34 40  1  6  0  0  0
 34 35  1  0  0  0  0
 35 44  1  6  0  0  0
 35 36  1  0  0  0  0
 36 46  1  6  0  0  0
 36 37  1  0  0  0  0
 38 39  1  0  0  0  0
 40 43  1  0  0  0  0
 40 41  1  0  0  0  0
 40 42  1  0  0  0  0
 44 45  1  0  0  0  0
 46 47  1  0  0  0  0
 47 48  1  0  0  0  0
 49 50  1  0  0  0  0
 49 52  1  0  0  0  0
 50 53  1  0  0  0  0
 50 51  2  0  0  0  0
 53 54  1  6  0  0  0
 53 60  1  0  0  0  0
 54 55  1  0  0  0  0
 55 56  1  0  0  0  0
 56 59  1  0  0  0  0
 56 57  1  0  0  0  0
 56 58  1  0  0  0  0
 60 61  1  0  0  0  0
M  END
>  <MODEL>
1

>  <REMARK>
 VINA RESULT:    -6.795      0.000      0.000
 INTER + INTRA:         -16.309
 INTER:                 -13.151
 INTRA:                  -3.158
 UNBOUND:                -3.158
  22 active torsions:
  status: ('A' for Active; 'I' for Inactive)
    1  A    between atoms: C_1  and  O_9 
    2  A    between atoms: C_2  and  O_47 
    3  A    between atoms: C_3  and  O_49 
    4  A    between atoms: C_4  and  O_7 
    5  A    between atoms: C_5  and  C_6 
    6  A    between atoms: C_6  and  N_11 
    7  A    between atoms: O_9  and  C_24 
    8  A    between atoms: C_15  and  N_16 
       I    between atoms: N_16  and  C_55 
    9  A    between atoms: C_19  and  N_20 
   10  A    between atoms: C_25  and  O_26 
   11  A    between atoms: C_28  and  O_29 
   12  A    between atoms: O_29  and  C_30 
   13  A    between atoms: C_31  and  O_32 
   14  A    between atoms: C_34  and  N_35 
   15  A    between atoms: C_39  and  O_40 
   16  A    between atoms: C_42  and  C_44 
   17  A    between atoms: C_44  and  O_45 
   18  A    between atoms: N_51  and  C_59 
   19  A    between atoms: C_55  and  C_57 
   20  A    between atoms: C_57  and  C_58 
   21  A    between atoms: C_57  and  O_60 
   22  A    between atoms: C_58  and  C_59 

>  <COMPND>
    /home/daniil/Downloads/ml_docking_review/databases/Vina/outputs/6VTA_AKN/6VTA_AKN.pdbqt 

>  <AUTHOR>
    GENERATED BY OPEN BABEL 3.2.1

>  <MASTER>
        0    0    0    0    0    0    0    0   61    0   61    0

$$$$
