../../databases/Vina/outputs/7BNH_BEZ/7BNH_BEZ1.pdb
 OpenBabel08242612033D

  9  9  0  0  0  0  0  0  0  0999 V2000
   -8.2290    0.7510    8.6620 C   0  0  0  0  0  0  0  0  0  0  0  0
   -8.9970    0.6540    7.5120 C   0  0  0  0  0  0  0  0  0  0  0  0
   -8.9890    1.6870    6.5930 C   0  0  0  0  0  0  0  0  0  0  0  0
   -8.1900    2.7920    6.8110 C   0  0  0  0  0  0  0  0  0  0  0  0
   -7.4090    2.8800    7.9170 C   0  0  0  0  0  0  0  0  0  0  0  0
   -7.4360    1.8820    8.8630 C   0  0  0  0  0  0  0  0  0  0  0  0
   -8.2220   -0.3720    9.6780 C   0  0  0  0  0  0  0  0  0  0  0  0
   -7.5160   -1.3530    9.4810 O   0  0  0  0  0  0  0  0  0  0  0  0
   -8.9510   -0.2200   10.7000 O   0  0  0  0  0  0  0  0  0  0  0  0
  1  2  2  0  0  0  0
  1  6  1  0  0  0  0
  1  7  1  0  0  0  0
  2  3  1  0  0  0  0
  3  4  2  0  0  0  0
  4  5  1  0  0  0  0
  5  6  2  0  0  0  0
  7  8  2  0  0  0  0
  7  9  1  0  0  0  0
M  END
>  <MODEL>
1

>  <REMARK>
 VINA RESULT:    -5.567      0.000      0.000
 INTER + INTRA:          -5.911
 INTER:                  -5.893
 INTRA:                  -0.019
 UNBOUND:                -0.019
  1 active torsions:
  status: ('A' for Active; 'I' for Inactive)
    1  A    between atoms: C_1  and  C_4 

>  <COMPND>
    /home/daniil/Downloads/ml_docking_review/databases/Vina/outputs/7BNH_BEZ/7BNH_BEZ.pdbqt 

>  <AUTHOR>
    GENERATED BY OPEN BABEL 3.2.1

>  <MASTER>
        0    0    0    0    0    0    0    0    9    0    9    0

$$$$
