../../databases/Vina/outputs/7TUO_KL9/7TUO_KL91.pdb
 OpenBabel08242616453D

 37 41  0  0  1  0  0  0  0  0999 V2000
    1.8260   23.5720  -12.4290 C   0  0  0  0  0  0  0  0  0  0  0  0
    0.6040   23.0540  -12.4630 N   0  0  0  0  0  0  0  0  0  0  0  0
    0.3070   22.5250  -13.2830 H   0  0  0  0  0  0  0  0  0  0  0  0
    2.2820   24.1800  -11.4590 O   0  0  0  0  0  0  0  0  0  0  0  0
   -0.3180   23.2290  -11.3520 C   0  0  0  0  0  0  0  0  0  0  0  0
   -1.2180   24.4030  -11.5620 C   0  0  0  0  0  0  0  0  0  0  0  0
   -2.0400   24.5960  -10.3130 C   0  0  0  0  0  0  0  0  0  0  0  0
   -2.9500   23.6360   -9.9150 C   0  0  0  0  0  0  0  0  0  0  0  0
   -3.6880   23.7890   -8.7530 C   0  0  0  0  0  0  0  0  0  0  0  0
   -3.5330   24.9050   -7.9510 C   0  0  0  0  0  0  0  0  0  0  0  0
   -2.5850   25.8500   -8.3270 C   0  0  0  0  0  0  0  0  0  0  0  0
   -1.8420   25.6890   -9.4880 C   0  0  0  0  0  0  0  0  0  0  0  0
   -4.3750   25.0260   -6.6960 C   0  0  2  0  0  0  0  0  0  0  0  0
   -5.1630   26.3460   -6.8610 C   0  0  0  0  0  0  0  0  0  0  0  0
   -5.9880   26.6910   -5.6410 C   0  0  2  0  0  0  0  0  0  0  0  0
   -5.1160   26.6820   -4.4550 N   0  0  0  0  0  4  0  0  0  0  0  0
   -6.9900   25.5970   -5.3370 C   0  0  0  0  0  0  0  0  0  0  0  0
   -4.7920   25.2430   -4.3180 C   0  0  2  0  0  0  0  0  0  0  0  0
   -4.3090   27.3030   -4.5080 H   0  0  0  0  0  0  0  0  0  0  0  0
   -5.5170   27.1160   -3.6230 H   0  0  0  0  0  0  0  0  0  0  0  0
   -3.7150   24.9440   -5.3420 C   0  0  0  0  0  0  0  0  0  0  0  0
   -6.1800   24.6080   -4.4670 C   0  0  0  0  0  0  0  0  0  0  0  0
    2.6270   23.3950  -13.6430 C   0  0  0  0  0  0  0  0  0  0  0  0
    1.9090   22.7930  -15.1160 S   0  0  0  0  0  0  0  0  0  0  0  0
    3.4020   23.0270  -15.9520 C   0  0  0  0  0  0  0  0  0  0  0  0
    3.5700   22.7870  -17.2570 N   0  0  0  0  0  0  0  0  0  0  0  0
    4.4450   23.4980  -15.1420 C   0  0  0  0  0  0  0  0  0  0  0  0
    4.7750   23.0140  -17.7580 C   0  0  0  0  0  0  0  0  0  0  0  0
    2.8060   22.4460  -17.8410 H   0  0  0  0  0  0  0  0  0  0  0  0
    4.9620   22.7360  -19.2170 C   0  0  0  0  0  0  0  0  0  0  0  0
    5.8320   23.4830  -16.9550 C   0  0  0  0  0  0  0  0  0  0  0  0
    5.6760   23.7330  -15.6470 N   0  0  0  0  0  0  0  0  0  0  0  0
    6.4410   24.0800  -15.0680 H   0  0  0  0  0  0  0  0  0  0  0  0
    3.9650   23.7020  -13.7860 C   0  0  0  0  0  0  0  0  0  0  0  0
    4.7300   24.2260  -12.8140 N   0  0  0  0  0  0  0  0  0  0  0  0
    4.6900   23.9070  -11.8460 H   0  0  0  0  0  0  0  0  0  0  0  0
    5.4590   24.9230  -12.9680 H   0  0  0  0  0  0  0  0  0  0  0  0
  1 23  1  0  0  0  0
  1  2  1  0  0  0  0
  1  4  2  0  0  0  0
  2  3  1  0  0  0  0
  2  5  1  0  0  0  0
  5  6  1  0  0  0  0
  6  7  1  0  0  0  0
  7  8  2  0  0  0  0
  7 12  1  0  0  0  0
  8  9  1  0  0  0  0
  9 10  2  0  0  0  0
 10 11  1  0  0  0  0
 11 12  2  0  0  0  0
 13 10  1  6  0  0  0
 13 14  1  0  0  0  0
 13 21  1  0  0  0  0
 15 14  1  6  0  0  0
 15 17  1  0  0  0  0
 15 16  1  0  0  0  0
 16 19  1  0  0  0  0
 16 18  1  0  0  0  0
 16 20  1  0  0  0  0
 17 22  1  0  0  0  0
 18 21  1  6  0  0  0
 18 22  1  0  0  0  0
 23 24  1  0  0  0  0
 23 34  2  0  0  0  0
 24 25  1  0  0  0  0
 25 26  1  0  0  0  0
 25 27  2  0  0  0  0
 26 29  1  0  0  0  0
 26 28  1  0  0  0  0
 27 32  1  0  0  0  0
 27 34  1  0  0  0  0
 28 30  1  0  0  0  0
 28 31  2  0  0  0  0
 31 32  1  0  0  0  0
 32 33  1  0  0  0  0
 34 35  1  0  0  0  0
 35 37  1  0  0  0  0
 35 36  1  0  0  0  0
M  END
>  <MODEL>
1

>  <REMARK>
 VINA RESULT:   -10.706      0.000      0.000
 INTER + INTRA:         -14.943
 INTER:                 -14.149
 INTRA:                  -0.794
 UNBOUND:                -0.794
  6 active torsions:
  status: ('A' for Active; 'I' for Inactive)
    1  A    between atoms: C_5  and  C_9 
    2  A    between atoms: C_7  and  N_17 
    3  A    between atoms: C_8  and  N_31 
    4  A    between atoms: C_8  and  C_9 
    5  A    between atoms: C_20  and  C_26 
       I    between atoms: C_20  and  N_31 
    6  A    between atoms: C_22  and  C_23 

>  <COMPND>
    /home/daniil/Downloads/ml_docking_review/databases/Vina/outputs/7TUO_KL9/7TUO_KL9.pdbqt 

>  <AUTHOR>
    GENERATED BY OPEN BABEL 3.2.1

>  <MASTER>
        0    0    0    0    0    0    0    0   37    0   37    0

$$$$
