../../databases/Vina/outputs/7WJB_BGC/7WJB_BGC1.pdb
 OpenBabel08242616453D

 17 17  0  0  1  0  0  0  0  0999 V2000
   54.6090   21.8250   14.6730 C   0  0  2  0  0  0  0  0  0  0  0  0
   55.8310   21.9140   13.7700 C   0  0  2  0  0  0  0  0  0  0  0  0
   57.0760   21.7790   14.6510 C   0  0  1  0  0  0  0  0  0  0  0  0
   57.0500   20.4170   15.3440 C   0  0  2  0  0  0  0  0  0  0  0  0
   54.6330   20.4650   15.3620 C   0  0  1  0  0  0  0  0  0  0  0  0
   55.8570   20.3440   16.1360 O   0  0  0  0  0  0  0  0  0  0  0  0
   58.2140   20.2140   16.3160 C   0  0  0  0  0  0  0  0  0  0  0  0
   57.8310   20.7130   17.5980 O   0  0  0  0  0  0  0  0  0  0  0  0
   56.8930   20.8650   17.5960 H   0  0  0  0  0  0  0  0  0  0  0  0
   58.2600   21.9740   13.8870 O   0  0  0  0  0  0  0  0  0  0  0  0
   58.2510   22.8230   13.4600 H   0  0  0  0  0  0  0  0  0  0  0  0
   53.4720   20.3410   16.1930 O   0  0  0  0  0  0  0  0  0  0  0  0
   53.4260   21.0920   16.7740 H   0  0  0  0  0  0  0  0  0  0  0  0
   55.8510   23.1400   13.0690 O   0  0  0  0  0  0  0  0  0  0  0  0
   56.7340   23.3620   12.8000 H   0  0  0  0  0  0  0  0  0  0  0  0
   53.3670   21.9950   13.9930 O   0  0  0  0  0  0  0  0  0  0  0  0
   52.6960   22.4230   14.5120 H   0  0  0  0  0  0  0  0  0  0  0  0
  1  2  1  0  0  0  0
  1 16  1  6  0  0  0
  1  5  1  0  0  0  0
  2 14  1  1  0  0  0
  2  3  1  0  0  0  0
  3 10  1  6  0  0  0
  3  4  1  0  0  0  0
  4  6  1  0  0  0  0
  4  7  1  1  0  0  0
  5  6  1  0  0  0  0
  5 12  1  1  0  0  0
  7  8  1  0  0  0  0
  8  9  1  0  0  0  0
 10 11  1  0  0  0  0
 12 13  1  0  0  0  0
 14 15  1  0  0  0  0
 16 17  1  0  0  0  0
M  END
>  <MODEL>
1

>  <REMARK>
 VINA RESULT:    -6.333      0.000      0.000
 INTER + INTRA:          -7.683
 INTER:                  -7.628
 INTRA:                  -0.055
 UNBOUND:                -0.055
  6 active torsions:
  status: ('A' for Active; 'I' for Inactive)
    1  A    between atoms: C_1  and  O_9 
    2  A    between atoms: C_2  and  O_11 
    3  A    between atoms: C_3  and  O_13 
    4  A    between atoms: C_4  and  C_5 
    5  A    between atoms: C_5  and  O_16 
    6  A    between atoms: C_6  and  O_7 

>  <COMPND>
    /home/daniil/Downloads/ml_docking_review/databases/Vina/outputs/7WJB_BGC/7WJB_BGC.pdbqt 

>  <AUTHOR>
    GENERATED BY OPEN BABEL 3.2.1

>  <MASTER>
        0    0    0    0    0    0    0    0   17    0   17    0

$$$$
