../../databases/Vina/outputs/7T2I_E9F/7T2I_E9F1.pdb
 OpenBabel08242616453D

 35 39  0  0  1  0  0  0  0  0999 V2000
 -129.7590 -171.7790  115.4270 C   0  0  1  0  0  0  0  0  0  0  0  0
 -127.9860 -171.1200  116.8600 C   0  0  0  0  0  0  0  0  0  0  0  0
 -127.6920 -171.3130  114.5900 C   0  0  1  0  0  0  0  0  0  0  0  0
 -129.3000 -171.5660  116.7270 C   0  0  0  0  0  0  0  0  0  0  0  0
 -127.2160 -171.0110  115.7870 N   0  0  0  0  0  0  0  0  0  0  0  0
 -126.2510 -170.6930  115.8830 H   0  0  0  0  0  0  0  0  0  0  0  0
 -128.9500 -171.6990  114.3690 N   0  0  0  0  0  0  0  0  0  0  0  0
 -129.2800 -171.9250  113.4300 H   0  0  0  0  0  0  0  0  0  0  0  0
 -131.1830 -172.2530  115.1900 C   0  0  0  0  0  0  0  0  0  0  0  0
 -131.9510 -172.6420  116.3130 C   0  0  0  0  0  0  0  0  0  0  0  0
 -133.2290 -173.1200  116.0340 C   0  0  0  0  0  0  0  0  0  0  0  0
 -133.6650 -173.2370  114.7700 N   0  0  0  0  0  0  0  0  0  0  0  0
 -132.9030 -172.8800  113.6940 C   0  0  0  0  0  0  0  0  0  0  0  0
 -134.6010 -173.6070  114.6060 H   0  0  0  0  0  0  0  0  0  0  0  0
 -131.6530 -172.3860  113.8620 C   0  0  0  0  0  0  0  0  0  0  0  0
 -133.1620 -172.9080  112.3550 N   0  0  0  0  0  0  0  0  0  0  0  0
 -131.1460 -172.1090  112.5580 C   0  0  0  0  0  0  0  0  0  0  0  0
 -132.1140 -172.4580  111.6460 C   0  0  0  0  0  0  0  0  0  0  0  0
 -134.0390 -173.2310  111.9450 H   0  0  0  0  0  0  0  0  0  0  0  0
 -127.4760 -170.8200  118.2740 C   0  0  0  0  0  0  0  0  0  0  0  0
 -128.1580 -171.0320  119.6120 C   0  0  0  0  0  0  0  0  0  0  0  0
 -126.8510 -171.7730  119.2590 C   0  0  0  0  0  0  0  0  0  0  0  0
 -126.7140 -169.1630  118.2300 S   0  0  2  0  0  0  0  0  0  0  0  0
 -127.0980 -168.2470  117.1950 O   0  0  0  0  0  0  0  0  0  0  0  0
 -124.9800 -169.3300  117.7260 C   0  0  0  0  0  0  0  0  0  0  0  0
 -127.1910 -168.3420  119.4100 N   0  0  0  0  0  0  0  0  0  0  0  0
 -127.6580 -167.4360  119.4420 H   0  0  0  0  0  0  0  0  0  0  0  0
 -126.8960 -168.9820  120.1470 H   0  0  0  0  0  0  0  0  0  0  0  0
 -126.7920 -171.1650  113.4600 N   0  0  2  0  0  0  0  0  0  0  0  0
 -125.4410 -170.5560  113.7740 C   0  0  0  0  0  0  0  0  0  0  0  0
 -124.6680 -169.9610  112.6090 C   0  0  0  0  0  0  0  0  0  0  0  0
 -125.0820 -170.6040  111.4350 O   0  0  0  0  0  0  0  0  0  0  0  0
 -126.3810 -170.2690  111.1420 C   0  0  0  0  0  0  0  0  0  0  0  0
 -127.3360 -170.9710  112.1120 C   0  0  1  0  0  0  0  0  0  0  0  0
 -127.3930 -172.2750  111.3520 C   0  0  0  0  0  0  0  0  0  0  0  0
  1  7  1  0  0  0  0
  1  9  1  1  0  0  0
  1  4  1  0  0  0  0
  2  5  1  0  0  0  0
  2  4  2  0  0  0  0
  2 20  1  0  0  0  0
  3 29  1  0  0  0  0
  3  7  1  6  0  0  0
  3  5  1  0  0  0  0
  5  6  1  0  0  0  0
  7  8  1  0  0  0  0
  9 15  1  0  0  0  0
  9 10  2  0  0  0  0
 10 11  1  0  0  0  0
 11 12  1  0  0  0  0
 12 13  1  0  0  0  0
 12 14  1  0  0  0  0
 13 16  1  0  0  0  0
 13 15  2  0  0  0  0
 15 17  1  0  0  0  0
 16 18  1  0  0  0  0
 16 19  1  0  0  0  0
 17 18  2  0  0  0  0
 20 23  1  0  0  0  0
 20 22  1  0  0  0  0
 20 21  1  0  0  0  0
 21 22  1  0  0  0  0
 23 24  1  0  0  0  0
 23 25  1  1  0  0  0
 23 26  1  0  0  0  0
 26 27  1  0  0  0  0
 26 28  1  0  0  0  0
 29 34  1  0  0  0  0
 29 30  1  1  0  0  0
 30 31  1  0  0  0  0
 31 32  1  0  0  0  0
 32 33  1  0  0  0  0
 33 34  1  0  0  0  0
 34 35  1  6  0  0  0
M  END
>  <MODEL>
1

>  <REMARK>
 VINA RESULT:    -8.563      0.000      0.000
 INTER + INTRA:         -11.531
 INTER:                 -10.816
 INTRA:                  -0.716
 UNBOUND:                -0.716
  5 active torsions:
  status: ('A' for Active; 'I' for Inactive)
    1  A    between atoms: C_3  and  C_16 
    2  A    between atoms: C_8  and  C_11 
    3  A    between atoms: C_8  and  S_35 
    4  A    between atoms: C_12  and  N_26 
    5  A    between atoms: N_21  and  S_35 

>  <COMPND>
    /home/daniil/Downloads/ml_docking_review/databases/Vina/outputs/7T2I_E9F/7T2I_E9F.pdbqt 

>  <AUTHOR>
    GENERATED BY OPEN BABEL 3.2.1

>  <MASTER>
        0    0    0    0    0    0    0    0   35    0   35    0

$$$$
