../../databases/Vina/outputs/7F8T_FAD/7F8T_FAD1.pdb
 OpenBabel08242612033D

 64 69  0  0  1  0  0  0  0  0999 V2000
   25.1450   25.9870   97.2510 C   0  0  0  0  0  0  0  0  0  0  0  0
   23.7560   26.1830   96.9350 O   0  0  0  0  0  0  0  0  0  0  0  0
   23.2200   25.7440   95.3900 P   0  0  1  0  0  0  0  0  0  0  0  0
   21.7800   25.7160   95.2340 O   0  0  0  0  0  0  0  0  0  0  0  0
   24.0470   26.7510   94.4020 O   0  0  0  0  0  0  0  0  0  0  0  0
   23.9180   24.2830   95.4890 O   0  0  0  0  0  0  0  0  0  0  0  0
   23.9240   23.0560   94.4190 P   0  0  1  0  0  0  0  0  0  0  0  0
   23.6830   23.4940   92.8810 O   0  0  0  0  0  0  0  0  0  0  0  0
   25.2770   22.6340   94.6330 O   0  0  0  0  0  0  0  0  0  0  0  0
   22.8290   21.8840   94.8990 O   0  0  0  0  0  0  0  0  0  0  0  0
   21.4780   22.2660   95.2220 C   0  0  0  0  0  0  0  0  0  0  0  0
   21.1950   21.8640   96.5630 C   0  0  2  0  0  0  0  0  0  0  0  0
   21.7240   22.7110   97.4760 C   0  0  2  0  0  0  0  0  0  0  0  0
   21.7440   21.9530   98.6290 C   0  0  2  0  0  0  0  0  0  0  0  0
   22.1480   20.7210   98.2230 C   0  0  1  0  0  0  0  0  0  0  0  0
   21.7690   20.6170   96.8470 O   0  0  0  0  0  0  0  0  0  0  0  0
   20.9740   23.8970   97.6010 O   0  0  0  0  0  0  0  0  0  0  0  0
   20.2710   23.8310   98.2360 H   0  0  0  0  0  0  0  0  0  0  0  0
   20.4510   21.8820   99.2190 O   0  0  0  0  0  0  0  0  0  0  0  0
   20.4990   21.5610  100.1120 H   0  0  0  0  0  0  0  0  0  0  0  0
   23.5040   20.5860   98.3680 N   0  0  1  0  0  0  0  0  0  0  0  0
   24.0480   20.1950   99.4770 C   0  0  2  0  0  0  0  0  0  0  0  0
   23.6100   19.8380  100.6810 N   0  0  0  0  0  0  0  0  0  0  0  0
   25.4500   20.1910   99.2310 C   0  0  0  0  0  0  0  0  0  0  0  0
   24.4720   19.4810  101.6340 C   0  0  0  0  0  0  0  0  0  0  0  0
   22.6090   19.8360  100.8770 H   0  0  0  0  0  0  0  0  0  0  0  0
   25.7780   19.4680  101.4390 N   0  0  0  0  0  0  0  0  0  0  0  0
   26.2890   19.8080  100.2720 C   0  0  0  0  0  0  0  0  0  0  0  0
   26.3980   19.1930  102.2000 H   0  0  0  0  0  0  0  0  0  0  0  0
   27.7270   19.7800  100.0980 N   0  0  0  0  0  0  0  0  0  0  0  0
   25.5820   20.6010   97.9160 N   0  0  0  0  0  0  0  0  0  0  0  0
   24.3530   20.8250   97.4450 C   0  0  0  0  0  0  0  0  0  0  0  0
   26.4560   20.7100   97.4010 H   0  0  0  0  0  0  0  0  0  0  0  0
   25.4570   25.7680   98.6850 C   0  0  1  0  0  0  0  0  0  0  0  0
   24.4910   26.2650   99.3690 O   0  0  0  0  0  0  0  0  0  0  0  0
   25.6230   24.3580   98.8460 C   0  0  1  0  0  0  0  0  0  0  0  0
   25.8300   23.7620   97.6490 O   0  0  0  0  0  0  0  0  0  0  0  0
   25.0140   23.6810   97.1690 H   0  0  0  0  0  0  0  0  0  0  0  0
   26.7070   24.0500   99.7270 C   0  0  1  0  0  0  0  0  0  0  0  0
   27.3040   25.1210  100.0710 O   0  0  0  0  0  0  0  0  0  0  0  0
   26.2660   23.2720  100.9560 C   0  0  0  0  0  0  0  0  0  0  0  0
   26.2880   24.1230  102.2000 N   0  0  0  0  0  0  0  0  0  0  0  0
   25.1710   24.6740  102.6110 C   0  0  2  0  0  0  0  0  0  0  0  0
   25.1470   25.4130  103.7700 C   0  0  0  0  0  0  0  0  0  0  0  0
   23.9840   24.5150  101.9600 N   0  0  0  0  0  0  0  0  0  0  0  0
   26.2390   25.6400  104.4610 N   0  0  0  0  0  0  0  0  0  0  0  0
   23.9660   25.9110  104.2590 C   0  0  0  0  0  0  0  0  0  0  0  0
   27.3210   24.9160  104.1640 C   0  0  0  0  0  0  0  0  0  0  0  0
   26.2600   26.3460  105.1980 H   0  0  0  0  0  0  0  0  0  0  0  0
   28.3930   24.9720  105.0330 C   0  0  0  0  0  0  0  0  0  0  0  0
   27.3330   24.1490  102.9780 C   0  0  0  0  0  0  0  0  0  0  0  0
   29.5420   24.2480  104.7560 C   0  0  0  0  0  0  0  0  0  0  0  0
   29.5900   23.4630  103.5940 C   0  0  0  0  0  0  0  0  0  0  0  0
   30.7460   24.3090  105.7200 C   0  0  0  0  0  0  0  0  0  0  0  0
   30.8550   22.6400  103.2550 C   0  0  0  0  0  0  0  0  0  0  0  0
   28.5150   23.4110  102.7270 C   0  0  0  0  0  0  0  0  0  0  0  0
   22.8740   25.7600  103.5630 N   0  0  0  0  0  0  0  0  0  0  0  0
   22.8430   25.0650  102.4380 C   0  0  1  0  0  0  0  0  0  0  0  0
   22.0130   26.1920  103.8980 H   0  0  0  0  0  0  0  0  0  0  0  0
   23.9560   23.9710  101.0970 H   0  0  0  0  0  0  0  0  0  0  0  0
   23.8960   26.6570  105.3690 O   0  0  0  0  0  0  0  0  0  0  0  0
   23.5530   26.3280  106.1910 H   0  0  0  0  0  0  0  0  0  0  0  0
   21.6940   24.9070  101.7620 O   0  0  0  0  0  0  0  0  0  0  0  0
   21.4580   25.5290  101.0840 H   0  0  0  0  0  0  0  0  0  0  0  0
  1  2  1  0  0  0  0
  1 34  1  0  0  0  0
  2  3  1  0  0  0  0
  3  5  2  6  0  0  0
  3  4  1  0  0  0  0
  3  6  1  0  0  0  0
  6  7  1  0  0  0  0
  7  8  2  6  0  0  0
  7  9  1  0  0  0  0
  7 10  1  0  0  0  0
 10 11  1  0  0  0  0
 12 11  1  6  0  0  0
 12 16  1  0  0  0  0
 12 13  1  0  0  0  0
 13 17  1  1  0  0  0
 13 14  1  0  0  0  0
 14 15  1  0  0  0  0
 14 19  1  6  0  0  0
 15 16  1  6  0  0  0
 15 21  1  0  0  0  0
 17 18  1  0  0  0  0
 19 20  1  0  0  0  0
 21 32  1  6  0  0  0
 21 22  1  0  0  0  0
 22 24  1  1  0  0  0
 22 23  1  0  0  0  0
 23 26  1  0  0  0  0
 23 25  1  0  0  0  0
 24 31  1  0  0  0  0
 24 28  2  0  0  0  0
 25 27  1  0  0  0  0
 27 28  1  0  0  0  0
 27 29  1  0  0  0  0
 28 30  1  0  0  0  0
 31 33  1  0  0  0  0
 31 32  1  0  0  0  0
 34 36  1  0  0  0  0
 34 35  1  1  0  0  0
 36 37  1  6  0  0  0
 36 39  1  0  0  0  0
 37 38  1  0  0  0  0
 39 40  1  1  0  0  0
 39 41  1  0  0  0  0
 41 42  1  0  0  0  0
 42 43  1  0  0  0  0
 42 51  1  0  0  0  0
 43 45  1  0  0  0  0
 43 44  1  1  0  0  0
 44 47  2  0  0  0  0
 44 46  1  0  0  0  0
 45 60  1  0  0  0  0
 45 58  1  0  0  0  0
 46 48  1  0  0  0  0
 46 49  1  0  0  0  0
 47 57  1  0  0  0  0
 47 61  1  0  0  0  0
 48 51  2  0  0  0  0
 48 50  1  0  0  0  0
 50 52  2  0  0  0  0
 51 56  1  0  0  0  0
 52 53  1  0  0  0  0
 52 54  1  0  0  0  0
 53 56  2  0  0  0  0
 53 55  1  0  0  0  0
 57 58  1  0  0  0  0
 57 59  1  0  0  0  0
 58 63  1  6  0  0  0
 61 62  1  0  0  0  0
 63 64  1  0  0  0  0
M  END
>  <MODEL>
1

>  <REMARK>
 VINA RESULT:   -13.529      0.000      0.000
 INTER + INTRA:         -30.146
 INTER:                 -25.789
 INTRA:                  -4.358
 UNBOUND:                -4.358
  18 active torsions:
  status: ('A' for Active; 'I' for Inactive)
    1  A    between atoms: P_1  and  O_4 
    2  A    between atoms: P_1  and  O_64 
    3  A    between atoms: O_4  and  C_5 
    4  A    between atoms: C_5  and  C_6 
    5  A    between atoms: C_8  and  O_9 
    6  A    between atoms: C_11  and  O_12 
    7  A    between atoms: C_14  and  N_15 
    8  A    between atoms: C_30  and  O_31 
    9  A    between atoms: C_35  and  O_36 
   10  A    between atoms: N_49  and  C_51 
   11  A    between atoms: C_51  and  C_52 
   12  A    between atoms: C_52  and  C_54 
   13  A    between atoms: C_54  and  C_57 
   14  A    between atoms: C_54  and  O_55 
   15  A    between atoms: C_57  and  C_59 
   16  A    between atoms: C_59  and  O_60 
   17  A    between atoms: O_60  and  P_61 
   18  A    between atoms: P_61  and  O_64 

>  <COMPND>
    /home/daniil/Downloads/ml_docking_review/databases/Vina/outputs/7F8T_FAD/7F8T_FAD.pdbqt 

>  <AUTHOR>
    GENERATED BY OPEN BABEL 3.2.1

>  <MASTER>
        0    0    0    0    0    0    0    0   64    0   64    0

$$$$
