../../databases/Vina/outputs/7JG0_GAR/7JG0_GAR1.pdb
 OpenBabel08242612033D

 24 24  0  0  1  0  0  0  0  0999 V2000
  -31.6760   21.1700   35.2900 C   0  0  1  0  0  0  0  0  0  0  0  0
  -30.7530   20.6930   34.1590 C   0  0  2  0  0  0  0  0  0  0  0  0
  -30.1740   19.4130   34.7880 C   0  0  1  0  0  0  0  0  0  0  0  0
  -31.2560   18.8360   35.5480 O   0  0  0  0  0  0  0  0  0  0  0  0
  -32.1400   19.8820   35.9750 C   0  0  2  0  0  0  0  0  0  0  0  0
  -29.7010   18.4810   33.8140 N   0  0  0  0  0  0  0  0  0  0  0  0
  -28.5490   17.8240   33.9670 C   0  0  0  0  0  0  0  0  0  0  0  0
  -27.8800   17.8430   34.9990 O   0  0  0  0  0  0  0  0  0  0  0  0
  -30.2590   18.3130   32.9770 H   0  0  0  0  0  0  0  0  0  0  0  0
  -28.1480   17.0340   32.7400 C   0  0  0  0  0  0  0  0  0  0  0  0
  -27.1050   17.6940   31.9820 N   0  0  0  0  0  4  0  0  0  0  0  0
  -26.6330   17.0400   31.3580 H   0  0  0  0  0  0  0  0  0  0  0  0
  -27.4990   18.3260   31.2860 H   0  0  0  0  0  0  0  0  0  0  0  0
  -26.4390   18.1760   32.5850 H   0  0  0  0  0  0  0  0  0  0  0  0
  -29.7890   21.6540   33.7900 O   0  0  0  0  0  0  0  0  0  0  0  0
  -30.0820   22.5460   33.9290 H   0  0  0  0  0  0  0  0  0  0  0  0
  -33.5580   19.5100   35.5970 C   0  0  0  0  0  0  0  0  0  0  0  0
  -34.4620   20.4250   36.2070 O   0  0  0  0  0  0  0  0  0  0  0  0
  -35.9620   20.5040   35.6500 P   0  0  0  0  0  0  0  0  0  0  0  0
  -36.3450   19.0520   35.4700 O   0  0  0  0  0  0  0  0  0  0  0  0
  -35.8920   21.3010   34.3650 O   0  0  0  0  0  0  0  0  0  0  0  0
  -36.7210   21.2440   36.7480 O   0  0  0  0  0  0  0  0  0  0  0  0
  -30.9020   21.9570   36.1870 O   0  0  0  0  0  0  0  0  0  0  0  0
  -31.3440   22.0360   37.0230 H   0  0  0  0  0  0  0  0  0  0  0  0
  1  2  1  0  0  0  0
  1  5  1  0  0  0  0
  1 23  1  1  0  0  0
  2 15  1  1  0  0  0
  2  3  1  0  0  0  0
  3  6  1  6  0  0  0
  3  4  1  0  0  0  0
  4  5  1  0  0  0  0
  5 17  1  6  0  0  0
  6  9  1  0  0  0  0
  6  7  1  0  0  0  0
  7 10  1  0  0  0  0
  7  8  2  0  0  0  0
 10 11  1  0  0  0  0
 11 13  1  0  0  0  0
 11 12  1  0  0  0  0
 11 14  1  0  0  0  0
 15 16  1  0  0  0  0
 17 18  1  0  0  0  0
 18 19  1  0  0  0  0
 19 21  2  0  0  0  0
 19 20  1  0  0  0  0
 19 22  1  0  0  0  0
 23 24  1  0  0  0  0
M  END
>  <MODEL>
1

>  <REMARK>
 VINA RESULT:    -7.193      0.000      0.000
 INTER + INTRA:         -10.276
 INTER:                  -9.926
 INTRA:                  -0.349
 UNBOUND:                -0.349
  8 active torsions:
  status: ('A' for Active; 'I' for Inactive)
    1  A    between atoms: C_1  and  O_2 
    2  A    between atoms: C_4  and  O_5 
    3  A    between atoms: C_7  and  N_12 
    4  A    between atoms: C_9  and  C_10 
    5  A    between atoms: C_10  and  O_11 
    6  A    between atoms: O_11  and  P_21 
       I    between atoms: N_12  and  C_14 
    7  A    between atoms: C_14  and  C_16 
    8  A    between atoms: C_16  and  N_17 

>  <COMPND>
    /home/daniil/Downloads/ml_docking_review/databases/Vina/outputs/7JG0_GAR/7JG0_GAR.pdbqt 

>  <AUTHOR>
    GENERATED BY OPEN BABEL 3.2.1

>  <MASTER>
        0    0    0    0    0    0    0    0   24    0   24    0

$$$$
