../../databases/Vina/outputs/7MAE_XUS/7MAE_XUS1.pdb
 OpenBabel08242616453D

 54 57  0  0  1  0  0  0  0  0999 V2000
   18.5160   -1.4850   15.5620 C   0  0  2  0  0  0  0  0  0  0  0  0
   20.0420   -1.4710   15.3360 C   0  0  2  0  0  0  0  0  0  0  0  0
   20.3350   -0.4120   14.4800 O   0  0  0  0  0  0  0  0  0  0  0  0
   20.2130    0.4170   14.9270 H   0  0  0  0  0  0  0  0  0  0  0  0
   20.4840   -2.8000   14.7120 C   0  0  0  0  0  0  0  0  0  0  0  0
   21.9270   -3.0630   15.1410 N   0  0  0  0  0  0  0  0  0  0  0  0
   22.8010   -3.9080   14.2520 C   0  0  0  0  0  0  0  0  0  0  0  0
   22.0000   -5.1490   13.7460 C   0  0  1  0  0  0  0  0  0  0  0  0
   22.2320   -5.4010   12.2880 C   0  0  0  0  0  0  0  0  0  0  0  0
   22.4550   -6.3630   14.5920 C   0  0  0  0  0  0  0  0  0  0  0  0
   22.4710   -7.6480   13.7200 C   0  0  0  0  0  0  0  0  0  0  0  0
   22.1730   -3.3160   16.8400 S   0  0  0  0  0  0  0  0  0  0  0  0
   20.9300   -3.8570   17.4510 O   0  0  0  0  0  0  0  0  0  0  0  0
   23.2250   -4.3090   17.0980 O   0  0  0  0  0  0  0  0  0  0  0  0
   22.6270   -1.6980   17.5110 C   0  0  0  0  0  0  0  0  0  0  0  0
   23.7080   -0.8960   16.8030 C   0  0  0  0  0  0  0  0  0  0  0  0
   24.1010    0.4410   17.3680 C   0  0  0  0  0  0  0  0  0  0  0  0
   23.4340    0.9550   18.6320 C   0  0  0  0  0  0  0  0  0  0  0  0
   22.3610    0.1300   19.3300 C   0  0  0  0  0  0  0  0  0  0  0  0
   21.9570   -1.1950   18.7720 C   0  0  0  0  0  0  0  0  0  0  0  0
   23.7980    2.2110   19.1690 N   0  0  0  0  0  4  0  0  0  0  0  0
   23.3630    2.3130   20.0870 H   0  0  0  0  0  0  0  0  0  0  0  0
   24.7860    2.1870   19.4170 H   0  0  0  0  0  0  0  0  0  0  0  0
   23.6180    3.0560   18.6260 H   0  0  0  0  0  0  0  0  0  0  0  0
   18.1580   -1.8330   17.0070 C   0  0  0  0  0  0  0  0  0  0  0  0
   18.2820   -0.5060   17.8320 C   0  0  0  0  0  0  0  0  0  0  0  0
   18.5660   -0.6160   19.3230 C   0  0  0  0  0  0  0  0  0  0  0  0
   18.7050    0.6700   20.1610 C   0  0  0  0  0  0  0  0  0  0  0  0
   18.5700    2.0010   19.4900 C   0  0  0  0  0  0  0  0  0  0  0  0
   18.2910    2.1160   18.0010 C   0  0  0  0  0  0  0  0  0  0  0  0
   18.1370    0.8360   17.1610 C   0  0  0  0  0  0  0  0  0  0  0  0
   18.6940    3.2110   20.2900 O   0  0  0  0  0  0  0  0  0  0  0  0
   20.0360    3.6020   20.5760 C   0  0  0  0  0  0  0  0  0  0  0  0
   20.0450    3.9450   22.4200 P   0  0  0  0  0  0  0  0  0  0  0  0
   18.8960    4.8240   22.7510 O   0  0  0  0  0  0  0  0  0  0  0  0
   21.4440    4.6960   22.9310 O   0  0  0  0  0  0  0  0  0  0  0  0
   22.6980    4.0460   22.8820 C   0  0  0  0  0  0  0  0  0  0  0  0
   23.6090    4.7720   21.7950 C   0  0  0  0  0  0  0  0  0  0  0  0
   19.9130    2.5330   23.2000 O   0  0  0  0  0  0  0  0  0  0  0  0
   19.8780    2.4580   24.5890 C   0  0  0  0  0  0  0  0  0  0  0  0
   19.0360    1.2000   24.9840 C   0  0  0  0  0  0  0  0  0  0  0  0
   17.9960   -2.5370   14.6990 N   0  0  0  0  0  0  0  0  0  0  0  0
   16.6760   -3.1180   14.8390 C   0  0  0  0  0  0  0  0  0  0  0  0
   15.8270   -2.6770   15.6000 O   0  0  0  0  0  0  0  0  0  0  0  0
   18.5980   -2.8850   13.9520 H   0  0  0  0  0  0  0  0  0  0  0  0
   16.4460   -4.2740   13.9950 O   0  0  0  0  0  0  0  0  0  0  0  0
   15.9920   -5.4990   14.5800 C   0  0  1  0  0  0  0  0  0  0  0  0
   14.6490   -5.8830   13.7040 C   0  0  0  0  0  0  0  0  0  0  0  0
   15.1900   -6.2580   12.5020 O   0  0  0  0  0  0  0  0  0  0  0  0
   16.5080   -6.9810   12.8630 C   0  0  1  0  0  0  0  0  0  0  0  0
   17.4380   -6.6040   12.0770 O   0  0  0  0  0  0  0  0  0  0  0  0
   16.8640   -6.4920   14.3330 C   0  0  1  0  0  0  0  0  0  0  0  0
   18.5730   -5.8480   12.9800 C   0  0  0  0  0  0  0  0  0  0  0  0
   18.3010   -6.0590   14.2560 C   0  0  0  0  0  0  0  0  0  0  0  0
  1 42  1  0  0  0  0
  1  2  1  0  0  0  0
  1 25  1  1  0  0  0
  2  3  1  0  0  0  0
  2  5  1  6  0  0  0
  3  4  1  0  0  0  0
  5  6  1  0  0  0  0
  6  7  1  0  0  0  0
  6 12  1  0  0  0  0
  7  8  1  0  0  0  0
  8  9  1  6  0  0  0
  8 10  1  0  0  0  0
 10 11  1  0  0  0  0
 12 14  2  0  0  0  0
 12 13  2  0  0  0  0
 12 15  1  0  0  0  0
 15 16  2  0  0  0  0
 15 20  1  0  0  0  0
 16 17  1  0  0  0  0
 17 18  2  0  0  0  0
 18 21  1  0  0  0  0
 18 19  1  0  0  0  0
 19 20  2  0  0  0  0
 21 24  1  0  0  0  0
 21 23  1  0  0  0  0
 21 22  1  0  0  0  0
 25 26  1  0  0  0  0
 26 31  2  0  0  0  0
 26 27  1  0  0  0  0
 27 28  2  0  0  0  0
 28 29  1  0  0  0  0
 29 30  2  0  0  0  0
 29 32  1  0  0  0  0
 30 31  1  0  0  0  0
 32 33  1  0  0  0  0
 33 34  1  0  0  0  0
 34 35  2  0  0  0  0
 34 36  1  0  0  0  0
 34 39  1  0  0  0  0
 36 37  1  0  0  0  0
 37 38  1  0  0  0  0
 39 40  1  0  0  0  0
 40 41  1  0  0  0  0
 42 45  1  0  0  0  0
 42 43  1  0  0  0  0
 43 46  1  0  0  0  0
 43 44  2  0  0  0  0
 47 46  1  6  0  0  0
 47 48  1  0  0  0  0
 47 52  1  0  0  0  0
 48 49  1  0  0  0  0
 50 49  1  6  0  0  0
 50 51  1  0  0  0  0
 50 52  1  0  0  0  0
 51 53  1  0  0  0  0
 52 54  1  6  0  0  0
 53 54  1  0  0  0  0
M  END
>  <MODEL>
1

>  <REMARK>
 VINA RESULT:    -8.923      0.000      0.000
 INTER + INTRA:         -22.773
 INTER:                 -19.878
 INTRA:                  -2.895
 UNBOUND:                -2.895
  22 active torsions:
  status: ('A' for Active; 'I' for Inactive)
    1  A    between atoms: C_1  and  O_43 
    2  A    between atoms: C_1  and  C_16 
    3  A    between atoms: C_1  and  C_2 
    4  A    between atoms: C_2  and  C_8 
    5  A    between atoms: C_2  and  N_35 
    6  A    between atoms: C_3  and  O_46 
       I    between atoms: C_3  and  N_35 
    7  A    between atoms: C_4  and  O_46 
    8  A    between atoms: C_8  and  C_19 
    9  A    between atoms: C_9  and  N_37 
   10  A    between atoms: C_12  and  S_54 
   11  A    between atoms: C_15  and  N_34 
   12  A    between atoms: C_15  and  C_26 
   13  A    between atoms: C_16  and  N_34 
   14  A    between atoms: C_22  and  O_49 
   15  A    between atoms: C_26  and  C_27 
   16  A    between atoms: C_29  and  P_53 
   17  A    between atoms: C_29  and  O_49 
   18  A    between atoms: C_30  and  O_50 
   19  A    between atoms: C_31  and  O_51 
   20  A    between atoms: N_34  and  S_54 
   21  A    between atoms: O_50  and  P_53 
   22  A    between atoms: O_51  and  P_53 

>  <COMPND>
    /home/daniil/Downloads/ml_docking_review/databases/Vina/outputs/7MAE_XUS/7MAE_XUS.pdbqt 

>  <AUTHOR>
    GENERATED BY OPEN BABEL 3.2.1

>  <MASTER>
        0    0    0    0    0    0    0    0   54    0   54    0

$$$$
