../../databases/Vina/outputs/7NSW_HC4/7NSW_HC41.pdb
 OpenBabel08242616453D

 13 13  0  0  0  0  0  0  0  0999 V2000
   64.2980   44.6290   26.4460 C   0  0  0  0  0  0  0  0  0  0  0  0
   65.1230   45.6070   27.0190 C   0  0  0  0  0  0  0  0  0  0  0  0
   65.8160   46.5220   26.2450 C   0  0  0  0  0  0  0  0  0  0  0  0
   65.7210   46.4700   24.8590 C   0  0  0  0  0  0  0  0  0  0  0  0
   64.9330   45.4970   24.2640 C   0  0  0  0  0  0  0  0  0  0  0  0
   64.2030   44.6190   25.0490 C   0  0  0  0  0  0  0  0  0  0  0  0
   63.5090   43.7260   27.2870 C   0  0  0  0  0  0  0  0  0  0  0  0
   63.9030   42.9910   28.3400 C   0  0  0  0  0  0  0  0  0  0  0  0
   63.0690   41.8880   28.9390 C   0  0  0  0  0  0  0  0  0  0  0  0
   62.2160   41.3280   28.2310 O   0  0  0  0  0  0  0  0  0  0  0  0
   63.2870   41.5740   30.1070 O   0  0  0  0  0  0  0  0  0  0  0  0
   66.4090   47.3420   24.0760 O   0  0  0  0  0  0  0  0  0  0  0  0
   66.5400   47.1400   23.1560 H   0  0  0  0  0  0  0  0  0  0  0  0
  1  6  2  0  0  0  0
  1  2  1  0  0  0  0
  1  7  1  0  0  0  0
  2  3  2  0  0  0  0
  3  4  1  0  0  0  0
  4 12  1  0  0  0  0
  4  5  2  0  0  0  0
  5  6  1  0  0  0  0
  7  8  2  0  0  0  0
  8  9  1  0  0  0  0
  9 10  2  0  0  0  0
  9 11  1  0  0  0  0
 12 13  1  0  0  0  0
M  END
>  <MODEL>
1

>  <REMARK>
 VINA RESULT:    -6.968      0.000      0.000
 INTER + INTRA:          -8.116
 INTER:                  -7.986
 INTRA:                  -0.130
 UNBOUND:                -0.130
  3 active torsions:
  status: ('A' for Active; 'I' for Inactive)
    1  A    between atoms: C_1  and  C_4 
    2  A    between atoms: C_5  and  C_6 
    3  A    between atoms: C_9  and  O_12 

>  <COMPND>
    /home/daniil/Downloads/ml_docking_review/databases/Vina/outputs/7NSW_HC4/7NSW_HC4.pdbqt 

>  <AUTHOR>
    GENERATED BY OPEN BABEL 3.2.1

>  <MASTER>
        0    0    0    0    0    0    0    0   13    0   13    0

$$$$
