../../databases/Vina/outputs/7LT0_ONJ/7LT0_ONJ1.pdb
 OpenBabel08242616453D

 28 31  0  0  0  0  0  0  0  0999 V2000
  -34.3380  -11.2190  -25.2250 C   0  0  0  0  0  0  0  0  0  0  0  0
  -35.5470  -11.2310  -24.5420 C   0  0  0  0  0  0  0  0  0  0  0  0
  -35.6420  -11.8210  -23.2810 C   0  0  0  0  0  0  0  0  0  0  0  0
  -34.4790  -12.3760  -22.7300 C   0  0  0  0  0  0  0  0  0  0  0  0
  -33.2930  -12.3490  -23.4130 C   0  0  0  0  0  0  0  0  0  0  0  0
  -33.1760  -11.7640  -24.6610 C   0  0  0  0  0  0  0  0  0  0  0  0
  -34.2780  -10.5480  -26.6030 C   0  0  0  0  0  0  0  0  0  0  0  0
  -34.6030  -11.0640  -27.6190 O   0  0  0  0  0  0  0  0  0  0  0  0
  -33.8080   -9.1880  -26.6010 N   0  0  0  0  0  0  0  0  0  0  0  0
  -33.6630   -8.3470  -27.6290 C   0  0  0  0  0  0  0  0  0  0  0  0
  -33.4410   -8.4730  -25.5480 C   0  0  0  0  0  0  0  0  0  0  0  0
  -33.5760   -6.8410  -27.2760 C   0  0  0  0  0  0  0  0  0  0  0  0
  -33.4190   -6.9370  -25.7230 C   0  0  0  0  0  0  0  0  0  0  0  0
  -33.5660   -5.4780  -27.8060 C   0  0  0  0  0  0  0  0  0  0  0  0
  -33.2730   -5.5000  -24.9530 C   0  0  0  0  0  0  0  0  0  0  0  0
  -33.3240   -4.4000  -25.8240 C   0  0  0  0  0  0  0  0  0  0  0  0
  -33.4600   -4.4380  -27.1050 C   0  0  0  0  0  0  0  0  0  0  0  0
  -31.8750  -13.1230  -22.5640 S   0  0  0  0  0  0  0  0  0  0  0  0
  -30.5060  -13.3550  -23.7060 C   0  0  0  0  0  0  0  0  0  0  0  0
  -30.3970  -14.5960  -24.3200 C   0  0  0  0  0  0  0  0  0  0  0  0
  -29.3340  -14.7960  -25.1890 C   0  0  0  0  0  0  0  0  0  0  0  0
  -29.1530  -16.1440  -25.8970 C   0  0  0  0  0  0  0  0  0  0  0  0
  -28.4260  -13.7790  -25.4210 C   0  0  0  0  0  0  0  0  0  0  0  0
  -28.5480  -12.5380  -24.7970 C   0  0  0  0  0  0  0  0  0  0  0  0
  -27.2620  -14.0390  -26.3910 C   0  0  0  0  0  0  0  0  0  0  0  0
  -29.6100  -12.3230  -23.9230 C   0  0  0  0  0  0  0  0  0  0  0  0
  -34.4760  -12.9760  -21.4810 O   0  0  0  0  0  0  0  0  0  0  0  0
  -34.7160  -12.4980  -20.6960 H   0  0  0  0  0  0  0  0  0  0  0  0
  1  7  1  0  0  0  0
  1  6  2  0  0  0  0
  1  2  1  0  0  0  0
  2  3  2  0  0  0  0
  3  4  1  0  0  0  0
  4  5  2  0  0  0  0
  4 27  1  0  0  0  0
  5  6  1  0  0  0  0
  5 18  1  0  0  0  0
  7  8  2  0  0  0  0
  7  9  1  0  0  0  0
  9 10  1  0  0  0  0
  9 11  1  0  0  0  0
 10 12  2  0  0  0  0
 11 13  2  0  0  0  0
 12 14  1  0  0  0  0
 12 13  1  0  0  0  0
 13 15  1  0  0  0  0
 14 17  2  0  0  0  0
 15 16  2  0  0  0  0
 16 17  1  0  0  0  0
 18 19  1  0  0  0  0
 19 20  2  0  0  0  0
 19 26  1  0  0  0  0
 20 21  1  0  0  0  0
 21 22  1  0  0  0  0
 21 23  2  0  0  0  0
 23 25  1  0  0  0  0
 23 24  1  0  0  0  0
 24 26  2  0  0  0  0
 27 28  1  0  0  0  0
M  END
>  <MODEL>
1

>  <REMARK>
 VINA RESULT:   -11.465      0.000      0.000
 INTER + INTRA:         -14.451
 INTER:                 -13.811
 INTRA:                  -0.640
 UNBOUND:                -0.640
  4 active torsions:
  status: ('A' for Active; 'I' for Inactive)
    1  A    between atoms: C_1  and  C_7 
    2  A    between atoms: C_4  and  O_20 
    3  A    between atoms: C_5  and  S_18 
       I    between atoms: C_7  and  N_8 
    4  A    between atoms: S_18  and  C_19 

>  <COMPND>
    /home/daniil/Downloads/ml_docking_review/databases/Vina/outputs/7LT0_ONJ/7LT0_ONJ.pdbqt 

>  <AUTHOR>
    GENERATED BY OPEN BABEL 3.2.1

>  <MASTER>
        0    0    0    0    0    0    0    0   28    0   28    0

$$$$
