../../databases/Vina/outputs/7ZTL_BCN/7ZTL_BCN1.pdb
 OpenBabel08242616453D

 13 12  0  0  0  0  0  0  0  0999 V2000
  -40.7340   26.1690   10.5120 N   0  0  0  0  0  0  0  0  0  0  0  0
  -40.6940   24.7900   10.0220 C   0  0  0  0  0  0  0  0  0  0  0  0
  -41.8550   24.5340    9.0880 C   0  0  0  0  0  0  0  0  0  0  0  0
  -42.0370   23.3490    8.7240 O   0  0  0  0  0  0  0  0  0  0  0  0
  -42.5390   25.5080    8.6750 O   0  0  0  0  0  0  0  0  0  0  0  0
  -39.4960   26.8860   10.1410 C   0  0  0  0  0  0  0  0  0  0  0  0
  -39.7710   27.7310    8.9000 C   0  0  0  0  0  0  0  0  0  0  0  0
  -41.0970   28.2930    8.9590 O   0  0  0  0  0  0  0  0  0  0  0  0
  -41.7490   27.6030    8.9630 H   0  0  0  0  0  0  0  0  0  0  0  0
  -40.9350   26.1810   11.9650 C   0  0  0  0  0  0  0  0  0  0  0  0
  -42.1690   27.0530   12.1910 C   0  0  0  0  0  0  0  0  0  0  0  0
  -42.8730   27.2540   10.9490 O   0  0  0  0  0  0  0  0  0  0  0  0
  -42.3120   27.0360   10.2130 H   0  0  0  0  0  0  0  0  0  0  0  0
  1  2  1  0  0  0  0
  1  6  1  0  0  0  0
  1 10  1  0  0  0  0
  2  3  1  0  0  0  0
  3  5  2  0  0  0  0
  3  4  1  0  0  0  0
  6  7  1  0  0  0  0
  7  8  1  0  0  0  0
  8  9  1  0  0  0  0
 10 11  1  0  0  0  0
 11 12  1  0  0  0  0
 12 13  1  0  0  0  0
M  END
>  <MODEL>
1

>  <REMARK>
 VINA RESULT:    -4.262      0.000      0.000
 INTER + INTRA:          -7.083
 INTER:                  -6.006
 INTRA:                  -1.077
 UNBOUND:                -1.077
  8 active torsions:
  status: ('A' for Active; 'I' for Inactive)
    1  A    between atoms: N_1  and  C_2 
    2  A    between atoms: N_1  and  C_10 
    3  A    between atoms: N_1  and  C_6 
    4  A    between atoms: C_2  and  C_3 
    5  A    between atoms: C_6  and  C_7 
    6  A    between atoms: C_7  and  O_8 
    7  A    between atoms: C_10  and  C_11 
    8  A    between atoms: C_11  and  O_12 

>  <COMPND>
    /home/daniil/Downloads/ml_docking_review/databases/Vina/outputs/7ZTL_BCN/7ZTL_BCN.pdbqt 

>  <AUTHOR>
    GENERATED BY OPEN BABEL 3.2.1

>  <MASTER>
        0    0    0    0    0    0    0    0   13    0   13    0

$$$$
