../../databases/Vina/outputs/7MGY_ZD1/7MGY_ZD11.pdb
 OpenBabel08242616453D

 33 34  0  0  1  0  0  0  0  0999 V2000
   23.7090  -30.1570  278.0510 C   0  0  1  0  0  0  0  0  0  0  0  0
   25.0670  -30.4340  277.4640 C   0  0  0  0  0  0  0  0  0  0  0  0
   25.3370  -30.5500  276.1580 C   0  0  0  0  0  0  0  0  0  0  0  0
   24.2710  -30.4370  275.0970 C   0  0  2  0  0  0  0  0  0  0  0  0
   22.8340  -30.0640  275.6740 C   0  0  1  0  0  0  0  0  0  0  0  0
   22.6150  -30.6370  277.0700 C   0  0  1  0  0  0  0  0  0  0  0  0
   24.1420  -31.6530  274.3470 O   0  0  0  0  0  0  0  0  0  0  0  0
   23.8960  -31.4850  272.9420 C   0  0  2  0  0  0  0  0  0  0  0  0
   23.3640  -32.7950  272.3070 C   0  0  1  0  0  0  0  0  0  0  0  0
   24.5030  -33.8640  272.1970 C   0  0  2  0  0  0  0  0  0  0  0  0
   25.7060  -33.2640  271.4030 C   0  0  1  0  0  0  0  0  0  0  0  0
   26.1690  -32.0130  272.2220 C   0  0  2  0  0  0  0  0  0  0  0  0
   25.0880  -31.0790  272.3070 O   0  0  0  0  0  0  0  0  0  0  0  0
   22.3690  -33.2910  273.1790 O   0  0  0  0  0  0  0  0  0  0  0  0
   22.5470  -34.2100  273.3470 H   0  0  0  0  0  0  0  0  0  0  0  0
   24.0210  -34.9570  271.4510 O   0  0  0  0  0  0  0  0  0  0  0  0
   24.1050  -35.7440  271.9770 H   0  0  0  0  0  0  0  0  0  0  0  0
   26.7410  -34.2420  271.3870 O   0  0  0  0  0  0  0  0  0  0  0  0
   27.3250  -34.0810  270.6550 H   0  0  0  0  0  0  0  0  0  0  0  0
   27.4050  -31.2790  271.5390 C   0  0  0  0  0  0  0  0  0  0  0  0
   26.9050  -30.6240  270.3830 O   0  0  0  0  0  0  0  0  0  0  0  0
   26.8120  -31.2890  269.7110 H   0  0  0  0  0  0  0  0  0  0  0  0
   22.8470  -28.6730  275.8710 O   0  0  0  0  0  0  0  0  0  0  0  0
   23.5980  -28.5250  276.4330 H   0  0  0  0  0  0  0  0  0  0  0  0
   26.7600  -30.4860  275.6110 C   0  0  0  0  0  0  0  0  0  0  0  0
   27.6380  -30.0880  276.6380 O   0  0  0  0  0  0  0  0  0  0  0  0
   27.9280  -30.8530  277.1200 H   0  0  0  0  0  0  0  0  0  0  0  0
   22.6150  -32.0370  276.9110 O   0  0  0  0  0  0  0  0  0  0  0  0
   23.0850  -32.3800  277.6620 H   0  0  0  0  0  0  0  0  0  0  0  0
   23.6290  -30.8750  279.3130 N   0  0  0  0  0  4  0  0  0  0  0  0
   24.3060  -30.5470  280.0030 H   0  0  0  0  0  0  0  0  0  0  0  0
   22.7850  -30.6580  279.8430 H   0  0  0  0  0  0  0  0  0  0  0  0
   23.7240  -31.8690  279.1030 H   0  0  0  0  0  0  0  0  0  0  0  0
  1  6  1  0  0  0  0
  1  2  1  0  0  0  0
  1 30  1  1  0  0  0
  2  3  2  0  0  0  0
  3  4  1  0  0  0  0
  3 25  1  0  0  0  0
  4  7  1  1  0  0  0
  4  5  1  0  0  0  0
  5 23  1  1  0  0  0
  5  6  1  0  0  0  0
  6 28  1  6  0  0  0
  8  7  1  1  0  0  0
  8  9  1  0  0  0  0
  8 13  1  0  0  0  0
  9 10  1  0  0  0  0
  9 14  1  1  0  0  0
 10 11  1  0  0  0  0
 10 16  1  6  0  0  0
 11 18  1  1  0  0  0
 11 12  1  0  0  0  0
 12 20  1  6  0  0  0
 12 13  1  0  0  0  0
 14 15  1  0  0  0  0
 16 17  1  0  0  0  0
 18 19  1  0  0  0  0
 20 21  1  0  0  0  0
 21 22  1  0  0  0  0
 23 24  1  0  0  0  0
 25 26  1  0  0  0  0
 26 27  1  0  0  0  0
 28 29  1  0  0  0  0
 30 33  1  0  0  0  0
 30 32  1  0  0  0  0
 30 31  1  0  0  0  0
M  END
>  <MODEL>
1

>  <REMARK>
 VINA RESULT:    -9.405      0.000      0.000
 INTER + INTRA:         -14.562
 INTER:                 -13.804
 INTRA:                  -0.758
 UNBOUND:                -0.758
  12 active torsions:
  status: ('A' for Active; 'I' for Inactive)
    1  A    between atoms: C_1  and  N_14 
    2  A    between atoms: C_3  and  C_4 
    3  A    between atoms: C_4  and  O_18 
    4  A    between atoms: C_5  and  O_20 
    5  A    between atoms: C_6  and  O_20 
    6  A    between atoms: C_7  and  O_21 
    7  A    between atoms: C_8  and  O_23 
    8  A    between atoms: C_9  and  O_25 
    9  A    between atoms: C_10  and  C_11 
   10  A    between atoms: C_11  and  O_27 
   11  A    between atoms: C_12  and  O_30 
   12  A    between atoms: C_13  and  O_32 

>  <COMPND>
    /home/daniil/Downloads/ml_docking_review/databases/Vina/outputs/7MGY_ZD1/7MGY_ZD1.pdbqt 

>  <AUTHOR>
    GENERATED BY OPEN BABEL 3.2.1

>  <MASTER>
        0    0    0    0    0    0    0    0   33    0   33    0

$$$$
