../../databases/Vina/outputs/8C5M_MTA/8C5M_MTA1.pdb
 OpenBabel08242616453D

 27 29  0  0  1  0  0  0  0  0999 V2000
   81.9390  -12.7790    3.8300 N   0  0  0  0  0  0  0  0  0  0  0  0
   81.5130  -13.0220    5.0990 C   0  0  0  0  0  0  0  0  0  0  0  0
   80.4620  -12.3230    5.4270 N   0  0  0  0  0  0  0  0  0  0  0  0
   79.9620  -12.3320    6.3160 H   0  0  0  0  0  0  0  0  0  0  0  0
   80.1760  -11.5700    4.3130 C   0  0  0  0  0  0  0  0  0  0  0  0
   79.1750  -10.6120    4.0280 C   0  0  1  0  0  0  0  0  0  0  0  0
   79.1800  -10.0360    2.8240 N   0  0  0  0  0  0  0  0  0  0  0  0
   78.4740   -9.3490    2.5630 H   0  0  0  0  0  0  0  0  0  0  0  0
   80.1430  -10.3920    1.9760 C   0  0  0  0  0  0  0  0  0  0  0  0
   81.1180  -11.2740    2.1200 N   0  0  0  0  0  0  0  0  0  0  0  0
   81.8020  -11.4970    1.3960 H   0  0  0  0  0  0  0  0  0  0  0  0
   81.0940  -11.8330    3.3170 C   0  0  0  0  0  0  0  0  0  0  0  0
   83.0800  -13.3680    3.1730 C   0  0  1  0  0  0  0  0  0  0  0  0
   84.3690  -13.0750    3.9460 C   0  0  1  0  0  0  0  0  0  0  0  0
   85.2760  -14.2450    3.5080 C   0  0  1  0  0  0  0  0  0  0  0  0
   84.3140  -15.3280    2.9930 C   0  0  2  0  0  0  0  0  0  0  0  0
   83.0140  -14.7650    3.2110 O   0  0  0  0  0  0  0  0  0  0  0  0
   84.9030  -11.7980    3.7260 O   0  0  0  0  0  0  0  0  0  0  0  0
   85.4220  -11.4580    4.4450 H   0  0  0  0  0  0  0  0  0  0  0  0
   86.1530  -13.8140    2.4960 O   0  0  0  0  0  0  0  0  0  0  0  0
   86.6800  -14.5450    2.1950 H   0  0  0  0  0  0  0  0  0  0  0  0
   84.5600  -16.6410    3.7590 C   0  0  0  0  0  0  0  0  0  0  0  0
   85.5740  -17.8720    2.8800 S   0  0  0  0  0  0  0  0  0  0  0  0
   85.2590  -19.4030    3.8380 C   0  0  0  0  0  0  0  0  0  0  0  0
   78.2310  -10.2590    4.9010 N   0  0  0  0  0  0  0  0  0  0  0  0
   77.9190  -10.8630    5.6610 H   0  0  0  0  0  0  0  0  0  0  0  0
   77.7980   -9.3410    4.8080 H   0  0  0  0  0  0  0  0  0  0  0  0
  1 12  1  0  0  0  0
  1  2  1  0  0  0  0
  2  3  1  0  0  0  0
  3  5  1  0  0  0  0
  3  4  1  0  0  0  0
  5 12  2  0  0  0  0
  5  6  1  0  0  0  0
  6  7  1  0  0  0  0
  6 25  1  6  0  0  0
  7  9  1  0  0  0  0
  7  8  1  0  0  0  0
  9 10  1  0  0  0  0
 10 11  1  0  0  0  0
 10 12  1  0  0  0  0
 13  1  1  1  0  0  0
 13 17  1  0  0  0  0
 13 14  1  0  0  0  0
 14 15  1  0  0  0  0
 14 18  1  6  0  0  0
 15 20  1  6  0  0  0
 15 16  1  0  0  0  0
 16 17  1  0  0  0  0
 16 22  1  1  0  0  0
 18 19  1  0  0  0  0
 20 21  1  0  0  0  0
 22 23  1  0  0  0  0
 23 24  1  0  0  0  0
 25 27  1  0  0  0  0
 25 26  1  0  0  0  0
M  END
>  <MODEL>
1

>  <REMARK>
 VINA RESULT:    -7.169      0.000      0.000
 INTER + INTRA:          -9.469
 INTER:                  -9.055
 INTRA:                  -0.414
 UNBOUND:                -0.414
  6 active torsions:
  status: ('A' for Active; 'I' for Inactive)
    1  A    between atoms: S_2  and  C_3 
    2  A    between atoms: C_3  and  C_4 
    3  A    between atoms: C_6  and  O_7 
    4  A    between atoms: C_9  and  O_10 
    5  A    between atoms: C_12  and  N_13 
    6  A    between atoms: C_18  and  N_19 

>  <COMPND>
    /home/daniil/Downloads/ml_docking_review/databases/Vina/outputs/8C5M_MTA/8C5M_MTA.pdbqt 

>  <AUTHOR>
    GENERATED BY OPEN BABEL 3.2.1

>  <MASTER>
        0    0    0    0    0    0    0    0   27    0   27    0

$$$$
