../../databases/Vina/outputs/8DP2_UMA/8DP2_UMA1.pdb
 OpenBabel08242616453D

 49 51  0  0  1  0  0  0  0  0999 V2000
   60.2360    1.8800   -0.6290 P   0  0  1  0  0  0  0  0  0  0  0  0
   61.0160    2.3340   -1.8290 O   0  0  0  0  0  0  0  0  0  0  0  0
   59.9850    2.9010    0.4460 O   0  0  0  0  0  0  0  0  0  0  0  0
   58.8270    1.3170   -1.1990 O   0  0  0  0  0  0  0  0  0  0  0  0
   57.8260    0.9650   -0.2790 C   0  0  1  0  0  0  0  0  0  0  0  0
   56.8270    1.9660   -0.1570 O   0  0  0  0  0  0  0  0  0  0  0  0
   56.1000    2.2140   -1.3800 C   0  0  1  0  0  0  0  0  0  0  0  0
   55.4850    0.9180   -1.9080 C   0  0  2  0  0  0  0  0  0  0  0  0
   56.5660   -0.1350   -2.0930 C   0  0  1  0  0  0  0  0  0  0  0  0
   57.2220   -0.3570   -0.7300 C   0  0  1  0  0  0  0  0  0  0  0  0
   55.0440    3.2490   -1.0460 C   0  0  0  0  0  0  0  0  0  0  0  0
   54.1530    2.7880   -0.0190 O   0  0  0  0  0  0  0  0  0  0  0  0
   53.4210    2.3010   -0.3810 H   0  0  0  0  0  0  0  0  0  0  0  0
   54.8120    1.1770   -3.1340 O   0  0  0  0  0  0  0  0  0  0  0  0
   54.8360    0.4160   -3.7020 H   0  0  0  0  0  0  0  0  0  0  0  0
   55.8520   -1.3360   -2.4160 O   0  0  0  0  0  0  0  0  0  0  0  0
   56.1610   -1.9320   -3.6880 C   0  0  2  0  0  0  0  0  0  0  0  0
   56.6480   -3.3400   -3.4280 C   0  0  0  0  0  0  0  0  0  0  0  0
   57.2440   -1.1140   -4.3750 C   0  0  0  0  0  0  0  0  0  0  0  0
   57.7840   -1.5400   -5.3940 O   0  0  0  0  0  0  0  0  0  0  0  0
   58.2690   -1.3640   -0.8030 N   0  0  0  0  0  0  0  0  0  0  0  0
   58.4270   -2.3400    0.0980 C   0  0  0  0  0  0  0  0  0  0  0  0
   57.6830   -2.4610    1.0610 O   0  0  0  0  0  0  0  0  0  0  0  0
   59.5820   -3.2700   -0.1310 C   0  0  0  0  0  0  0  0  0  0  0  0
   58.9220   -1.3230   -1.5860 H   0  0  0  0  0  0  0  0  0  0  0  0
   60.9060    0.5860   -0.0080 O   0  0  0  0  0  0  0  0  0  0  0  0
   61.3220    0.1310    1.4560 P   0  0  2  0  0  0  0  0  0  0  0  0
   60.1250   -0.0600    2.2920 O   0  0  0  0  0  0  0  0  0  0  0  0
   62.3580    1.1290    1.9300 O   0  0  0  0  0  0  0  0  0  0  0  0
   61.9960   -1.2600    1.1480 O   0  0  0  0  0  0  0  0  0  0  0  0
   62.7970   -1.4930   -0.0370 C   0  0  0  0  0  0  0  0  0  0  0  0
   63.9560   -2.3830    0.3510 C   0  0  2  0  0  0  0  0  0  0  0  0
   63.5960   -3.7030    1.0440 C   0  0  2  0  0  0  0  0  0  0  0  0
   64.0780   -3.4840    2.4830 C   0  0  2  0  0  0  0  0  0  0  0  0
   65.2690   -2.5740    2.2380 C   0  0  1  0  0  0  0  0  0  0  0  0
   64.8170   -1.6670    1.2640 O   0  0  0  0  0  0  0  0  0  0  0  0
   64.3150   -4.7880    0.4550 O   0  0  0  0  0  0  0  0  0  0  0  0
   64.3140   -4.7120   -0.4920 H   0  0  0  0  0  0  0  0  0  0  0  0
   64.4550   -4.6780    3.1690 O   0  0  0  0  0  0  0  0  0  0  0  0
   64.3970   -5.4690    2.6460 H   0  0  0  0  0  0  0  0  0  0  0  0
   65.6510   -1.8070    3.4160 N   0  0  0  0  0  0  0  0  0  0  0  0
   66.8320   -2.1460    4.0460 C   0  0  0  0  0  0  0  0  0  0  0  0
   67.5510   -3.0600    3.6630 O   0  0  0  0  0  0  0  0  0  0  0  0
   67.1160   -1.4180    5.1730 N   0  0  0  0  0  0  0  0  0  0  0  0
   66.3530   -0.4110    5.7180 C   0  0  0  0  0  0  0  0  0  0  0  0
   67.9840   -1.6470    5.6570 H   0  0  0  0  0  0  0  0  0  0  0  0
   65.1380   -0.1170    5.0080 C   0  0  0  0  0  0  0  0  0  0  0  0
   66.7260    0.1400    6.7460 O   0  0  0  0  0  0  0  0  0  0  0  0
   64.8330   -0.8110    3.9010 C   0  0  0  0  0  0  0  0  0  0  0  0
  1  2  2  6  0  0  0
  1  4  1  0  0  0  0
  1 26  1  0  0  0  0
  1  3  1  0  0  0  0
  5  4  1  6  0  0  0
  5 10  1  0  0  0  0
  5  6  1  0  0  0  0
  6  7  1  0  0  0  0
  7  8  1  0  0  0  0
  7 11  1  1  0  0  0
  8 14  1  6  0  0  0
  8  9  1  0  0  0  0
  9 16  1  1  0  0  0
  9 10  1  0  0  0  0
 10 21  1  6  0  0  0
 11 12  1  0  0  0  0
 12 13  1  0  0  0  0
 14 15  1  0  0  0  0
 16 17  1  0  0  0  0
 17 19  1  0  0  0  0
 17 18  1  1  0  0  0
 19 20  2  0  0  0  0
 21 25  1  0  0  0  0
 21 22  1  0  0  0  0
 22 24  1  0  0  0  0
 22 23  2  0  0  0  0
 26 27  1  0  0  0  0
 27 30  1  0  0  0  0
 27 29  2  1  0  0  0
 27 28  1  0  0  0  0
 30 31  1  0  0  0  0
 32 31  1  1  0  0  0
 32 33  1  0  0  0  0
 32 36  1  0  0  0  0
 33 37  1  6  0  0  0
 33 34  1  0  0  0  0
 34 35  1  0  0  0  0
 34 39  1  6  0  0  0
 35 36  1  0  0  0  0
 35 41  1  1  0  0  0
 37 38  1  0  0  0  0
 39 40  1  0  0  0  0
 41 49  1  0  0  0  0
 41 42  1  0  0  0  0
 42 43  2  0  0  0  0
 42 44  1  0  0  0  0
 44 46  1  0  0  0  0
 44 45  1  0  0  0  0
 45 47  1  0  0  0  0
 45 48  2  0  0  0  0
 47 49  2  0  0  0  0
M  END
>  <MODEL>
1

>  <REMARK>
 VINA RESULT:    -8.366      0.000      0.000
 INTER + INTRA:         -18.758
 INTER:                 -15.703
 INTRA:                  -3.056
 UNBOUND:                -3.056
  17 active torsions:
  status: ('A' for Active; 'I' for Inactive)
    1  A    between atoms: N_1  and  C_10 
    2  A    between atoms: C_11  and  O_12 
    3  A    between atoms: C_14  and  O_17 
    4  A    between atoms: C_15  and  C_19 
    5  A    between atoms: C_19  and  O_20 
    6  A    between atoms: O_20  and  P_21 
    7  A    between atoms: P_21  and  O_24 
    8  A    between atoms: O_24  and  P_25 
    9  A    between atoms: P_25  and  O_28 
   10  A    between atoms: O_28  and  C_29 
   11  A    between atoms: C_30  and  N_31 
       I    between atoms: N_31  and  C_33 
   12  A    between atoms: C_36  and  O_37 
   13  A    between atoms: O_37  and  C_46 
   14  A    between atoms: C_38  and  O_39 
   15  A    between atoms: C_41  and  C_43 
   16  A    between atoms: C_43  and  O_44 
   17  A    between atoms: C_46  and  C_47 

>  <COMPND>
    /home/daniil/Downloads/ml_docking_review/databases/Vina/outputs/8DP2_UMA/8DP2_UMA.pdbqt 

>  <AUTHOR>
    GENERATED BY OPEN BABEL 3.2.1

>  <MASTER>
        0    0    0    0    0    0    0    0   49    0   49    0

$$$$
