../../databases/Vina/outputs/7BCP_GCO/7BCP_GCO1.pdb
 OpenBabel08242611493D

 18 17  0  0  1  0  0  0  0  0999 V2000
  -20.1270    4.0100   -4.0140 C   0  0  2  0  0  0  0  0  0  0  0  0
  -20.1760    5.4760   -3.5630 C   0  0  2  0  0  0  0  0  0  0  0  0
  -20.6710    6.3200   -4.5960 O   0  0  0  0  0  0  0  0  0  0  0  0
  -21.1360    5.8410   -5.2730 H   0  0  0  0  0  0  0  0  0  0  0  0
  -18.7980    5.8980   -3.0650 C   0  0  2  0  0  0  0  0  0  0  0  0
  -18.8930    6.7400   -1.9130 O   0  0  0  0  0  0  0  0  0  0  0  0
  -19.4020    6.3290   -1.2240 H   0  0  0  0  0  0  0  0  0  0  0  0
  -18.1360    6.7450   -4.1400 C   0  0  0  0  0  0  0  0  0  0  0  0
  -18.2720    8.0840   -3.7060 O   0  0  0  0  0  0  0  0  0  0  0  0
  -17.8850    8.1120   -2.8390 H   0  0  0  0  0  0  0  0  0  0  0  0
  -19.6990    3.8790   -5.3420 O   0  0  0  0  0  0  0  0  0  0  0  0
  -18.8450    3.4670   -5.4040 H   0  0  0  0  0  0  0  0  0  0  0  0
  -21.5820    3.5340   -4.0060 C   0  0  1  0  0  0  0  0  0  0  0  0
  -21.7790    2.4770   -4.9360 O   0  0  0  0  0  0  0  0  0  0  0  0
  -22.0110    1.6710   -4.4920 H   0  0  0  0  0  0  0  0  0  0  0  0
  -22.0930    2.9330   -2.7060 C   0  0  0  0  0  0  0  0  0  0  0  0
  -22.0990    1.6680   -2.5630 O   0  0  0  0  0  0  0  0  0  0  0  0
  -22.5050    3.6840   -1.7950 O   0  0  0  0  0  0  0  0  0  0  0  0
  1 11  1  6  0  0  0
  1 13  1  0  0  0  0
  1  2  1  0  0  0  0
  2  3  1  6  0  0  0
  2  5  1  0  0  0  0
  3  4  1  0  0  0  0
  5  8  1  6  0  0  0
  5  6  1  0  0  0  0
  6  7  1  0  0  0  0
  8  9  1  0  0  0  0
  9 10  1  0  0  0  0
 11 12  1  0  0  0  0
 13 14  1  6  0  0  0
 13 16  1  0  0  0  0
 14 15  1  0  0  0  0
 16 17  2  0  0  0  0
 16 18  1  0  0  0  0
M  END
>  <MODEL>
1

>  <REMARK>
 VINA RESULT:    -7.037      0.000      0.000
 INTER + INTRA:         -10.477
 INTER:                 -10.123
 INTRA:                  -0.354
 UNBOUND:                -0.354
  10 active torsions:
  status: ('A' for Active; 'I' for Inactive)
    1  A    between atoms: C_1  and  C_2 
    2  A    between atoms: C_2  and  O_9 
    3  A    between atoms: C_2  and  C_3 
    4  A    between atoms: C_3  and  C_4 
    5  A    between atoms: C_3  and  O_11 
    6  A    between atoms: C_4  and  O_13 
    7  A    between atoms: C_4  and  C_5 
    8  A    between atoms: C_5  and  O_15 
    9  A    between atoms: C_5  and  C_6 
   10  A    between atoms: C_6  and  O_17 

>  <COMPND>
    /home/daniil/Downloads/ml_docking_review/databases/Vina/outputs/7BCP_GCO/7BCP_GCO.pdbqt 

>  <AUTHOR>
    GENERATED BY OPEN BABEL 3.2.1

>  <MASTER>
        0    0    0    0    0    0    0    0   18    0   18    0

$$$$
