../../databases/Vina/outputs/7ZOC_T8E/7ZOC_T8E1.pdb
 OpenBabel08242616453D

 16 16  0  0  1  0  0  0  0  0999 V2000
   16.7060   10.4010   35.8590 C   0  0  0  0  0  0  0  0  0  0  0  0
   15.1960    8.5800   34.3640 C   0  0  0  0  0  0  0  0  0  0  0  0
   17.3240    9.3250   35.2270 C   0  0  0  0  0  0  0  0  0  0  0  0
   15.3260   10.5410   35.7570 C   0  0  0  0  0  0  0  0  0  0  0  0
   14.5850    9.6410   35.0130 C   0  0  0  0  0  0  0  0  0  0  0  0
   16.5790    8.4290   34.4850 C   0  0  0  0  0  0  0  0  0  0  0  0
   17.5250   11.3480   36.5380 N   0  0  0  0  0  0  0  0  0  0  0  0
   18.1150   11.2320   37.7610 C   0  0  0  0  0  0  0  0  0  0  0  0
   18.0720   10.2200   38.4640 O   0  0  0  0  0  0  0  0  0  0  0  0
   17.6910   12.2260   36.0460 H   0  0  0  0  0  0  0  0  0  0  0  0
   18.8680   12.4580   38.2570 C   0  0  2  0  0  0  0  0  0  0  0  0
   19.4110   12.2150   39.6620 C   0  0  0  0  0  0  0  0  0  0  0  0
   17.8890   14.0050   38.2160 S   0  0  0  0  0  0  0  0  0  0  0  0
   14.3940    7.6200   33.5590 C   0  0  0  0  0  0  0  0  0  0  0  0
   12.9860    7.3230   33.9650 C   0  0  0  0  0  0  0  0  0  0  0  0
   14.8750    7.0940   32.5620 O   0  0  0  0  0  0  0  0  0  0  0  0
  1  3  2  0  0  0  0
  1  4  1  0  0  0  0
  1  7  1  0  0  0  0
  2 14  1  0  0  0  0
  2  6  2  0  0  0  0
  2  5  1  0  0  0  0
  3  6  1  0  0  0  0
  4  5  2  0  0  0  0
  7 10  1  0  0  0  0
  7  8  1  0  0  0  0
  8 11  1  0  0  0  0
  8  9  2  0  0  0  0
 11 13  1  0  0  0  0
 11 12  1  1  0  0  0
 14 16  2  0  0  0  0
 14 15  1  0  0  0  0
M  END
>  <MODEL>
1

>  <REMARK>
 VINA RESULT:    -7.192      0.000      0.000
 INTER + INTRA:          -8.699
 INTER:                  -8.453
 INTRA:                  -0.246
 UNBOUND:                -0.246
  3 active torsions:
  status: ('A' for Active; 'I' for Inactive)
    1  A    between atoms: C_1  and  N_12 
    2  A    between atoms: C_2  and  C_11 
    3  A    between atoms: C_6  and  C_7 
       I    between atoms: C_7  and  N_12 

>  <COMPND>
    /home/daniil/Downloads/ml_docking_review/databases/Vina/outputs/7ZOC_T8E/7ZOC_T8E.pdbqt 

>  <AUTHOR>
    GENERATED BY OPEN BABEL 3.2.1

>  <MASTER>
        0    0    0    0    0    0    0    0   16    0   16    0

$$$$
