../../databases/Vina/outputs/7V14_ORU/7V14_ORU1.pdb
 OpenBabel08242616453D

 39 44  0  0  1  0  0  0  0  0999 V2000
   30.0520    6.0640   -4.9690 C   0  0  0  0  0  0  0  0  0  0  0  0
   30.8530    6.2020   -6.1040 C   0  0  0  0  0  0  0  0  0  0  0  0
   31.9160    5.3240   -6.3330 C   0  0  0  0  0  0  0  0  0  0  0  0
   32.1580    4.3130   -5.4120 C   0  0  1  0  0  0  0  0  0  0  0  0
   30.3550    5.0260   -4.0970 C   0  0  0  0  0  0  0  0  0  0  0  0
   31.3820    4.1910   -4.3240 N   0  0  0  0  0  0  0  0  0  0  0  0
   33.2540    3.3040   -5.5460 C   0  0  1  0  0  0  0  0  0  0  0  0
   33.6150    3.0210   -6.9850 C   0  0  0  0  0  0  0  0  0  0  0  0
   34.3550    1.7360   -7.0630 C   0  0  0  0  0  0  0  0  0  0  0  0
   34.9730    1.3430   -8.3810 C   0  0  0  0  0  0  0  0  0  0  0  0
   33.7700    0.6020   -7.8610 C   0  0  0  0  0  0  0  0  0  0  0  0
   34.4420    3.6400   -4.7920 N   0  0  0  0  0  0  0  0  0  0  0  0
   35.1670    4.7270   -5.0950 N   0  0  0  0  0  0  0  0  0  0  0  0
   36.1550    4.6800   -4.1940 C   0  0  0  0  0  0  0  0  0  0  0  0
   35.0060    5.4160   -5.8290 H   0  0  0  0  0  0  0  0  0  0  0  0
   36.0480    3.5730   -3.3290 C   0  0  0  0  0  0  0  0  0  0  0  0
   34.9090    2.9090   -3.7420 C   0  0  0  0  0  0  0  0  0  0  0  0
   36.8860    3.1800   -2.2030 C   0  0  0  0  0  0  0  0  0  0  0  0
   36.8670    1.6110   -1.4990 S   0  0  0  0  0  0  0  0  0  0  0  0
   38.0930    2.1110   -0.4050 C   0  0  0  0  0  0  0  0  0  0  0  0
   38.5030    3.3550   -0.5240 N   0  0  0  0  0  0  0  0  0  0  0  0
   37.8190    3.9630   -1.5570 C   0  0  0  0  0  0  0  0  0  0  0  0
   39.2140    3.8000    0.0560 H   0  0  0  0  0  0  0  0  0  0  0  0
   31.6060    3.2630   -3.5090 O   0  0  0  0  0  0  0  0  0  0  0  0
   32.0560    3.4560   -2.6950 H   0  0  0  0  0  0  0  0  0  0  0  0
   28.9140    6.9380   -4.6910 C   0  0  0  0  0  0  0  0  0  0  0  0
   29.0310    8.2870   -4.3360 C   0  0  0  0  0  0  0  0  0  0  0  0
   27.9020    9.0730   -4.0800 C   0  0  0  0  0  0  0  0  0  0  0  0
   26.6240    8.5160   -4.1740 C   0  0  0  0  0  0  0  0  0  0  0  0
   26.5040    7.1730   -4.5350 C   0  0  0  0  0  0  0  0  0  0  0  0
   24.9290    6.4830   -4.6610 Cl  0  0  0  0  0  0  0  0  0  0  0  0
   27.6350    6.3960   -4.7930 C   0  0  0  0  0  0  0  0  0  0  0  0
   27.5160    5.1000   -5.1340 F   0  0  0  0  0  0  0  0  0  0  0  0
   30.2720    8.9180   -4.2680 N   0  0  0  0  0  0  0  0  0  0  0  0
   30.6980    9.9550   -5.0340 C   0  0  0  0  0  0  0  0  0  0  0  0
   31.9300   10.2510   -4.6790 N   0  0  0  0  0  0  0  0  0  0  0  0
   32.2430    9.3650   -3.6750 N   0  0  0  0  0  0  0  0  0  0  0  0
   32.5250   10.9820   -5.0680 H   0  0  0  0  0  0  0  0  0  0  0  0
   31.2330    8.5410   -3.4190 N   0  0  0  0  0  0  0  0  0  0  0  0
  1  2  1  0  0  0  0
  1 26  1  0  0  0  0
  1  5  2  0  0  0  0
  2  3  2  0  0  0  0
  3  4  1  0  0  0  0
  4  7  1  6  0  0  0
  4  6  1  0  0  0  0
  5  6  1  0  0  0  0
  6 24  1  0  0  0  0
  7  8  1  6  0  0  0
  7 12  1  0  0  0  0
  8  9  1  0  0  0  0
  9 10  1  0  0  0  0
  9 11  1  0  0  0  0
 10 11  1  0  0  0  0
 12 13  1  0  0  0  0
 12 17  1  0  0  0  0
 13 15  1  0  0  0  0
 13 14  1  0  0  0  0
 14 16  1  0  0  0  0
 16 17  2  0  0  0  0
 16 18  1  0  0  0  0
 18 22  2  0  0  0  0
 18 19  1  0  0  0  0
 19 20  1  0  0  0  0
 20 21  1  0  0  0  0
 21 22  1  0  0  0  0
 21 23  1  0  0  0  0
 24 25  1  0  0  0  0
 26 32  2  0  0  0  0
 26 27  1  0  0  0  0
 27 34  1  0  0  0  0
 27 28  2  0  0  0  0
 28 29  1  0  0  0  0
 29 30  2  0  0  0  0
 30 32  1  0  0  0  0
 30 31  1  0  0  0  0
 32 33  1  0  0  0  0
 34 35  1  0  0  0  0
 34 39  1  0  0  0  0
 35 36  1  0  0  0  0
 36 38  1  0  0  0  0
 36 37  1  0  0  0  0
 37 39  2  0  0  0  0
M  END
>  <MODEL>
1

>  <REMARK>
 VINA RESULT:    -9.603      0.000      0.000
 INTER + INTRA:         -14.961
 INTER:                 -13.813
 INTRA:                  -1.147
 UNBOUND:                -1.147
  8 active torsions:
  status: ('A' for Active; 'I' for Inactive)
    1  A    between atoms: C_1  and  C_18 
    2  A    between atoms: C_4  and  C_5 
    3  A    between atoms: C_5  and  C_23 
    4  A    between atoms: C_5  and  N_25 
    5  A    between atoms: C_6  and  C_23 
    6  A    between atoms: C_7  and  C_16 
    7  A    between atoms: C_21  and  N_31 
    8  A    between atoms: N_28  and  O_36 

>  <COMPND>
    /home/daniil/Downloads/ml_docking_review/databases/Vina/outputs/7V14_ORU/7V14_ORU.pdbqt 

>  <AUTHOR>
    GENERATED BY OPEN BABEL 3.2.1

>  <MASTER>
        0    0    0    0    0    0    0    0   39    0   39    0

$$$$
