../../databases/Vina/outputs/7OKF_VH5/7OKF_VH51.pdb
 OpenBabel08242616453D

 31 34  0  0  0  0  0  0  0  0999 V2000
  -27.2230   10.2750   12.9010 C   0  0  0  0  0  0  0  0  0  0  0  0
  -26.2030   10.1380   13.8610 C   0  0  0  0  0  0  0  0  0  0  0  0
  -25.0250    9.5290   13.4480 C   0  0  0  0  0  0  0  0  0  0  0  0
  -24.9120    9.0950   12.1450 C   0  0  0  0  0  0  0  0  0  0  0  0
  -28.4520   10.9170   13.2510 C   0  0  0  0  0  0  0  0  0  0  0  0
  -29.4320   11.4210   13.4850 N   0  0  0  0  0  0  0  0  0  0  0  0
  -25.8760    9.2170   11.2330 N   0  0  0  0  0  0  0  0  0  0  0  0
  -25.7540    8.8800   10.2770 H   0  0  0  0  0  0  0  0  0  0  0  0
  -26.9850    9.7890   11.6230 C   0  0  0  0  0  0  0  0  0  0  0  0
  -28.2320    9.9330   10.4390 Cl  0  0  0  0  0  0  0  0  0  0  0  0
  -26.3430   10.6030   15.1610 N   0  0  0  0  0  0  0  0  0  0  0  0
  -27.1960   11.1040   15.4080 H   0  0  0  0  0  0  0  0  0  0  0  0
  -25.3660   10.4150   16.1520 C   0  0  0  0  0  0  0  0  0  0  0  0
  -25.1340    9.1100   16.5560 C   0  0  0  0  0  0  0  0  0  0  0  0
  -24.2100    8.8370   17.5410 C   0  0  0  0  0  0  0  0  0  0  0  0
  -23.4970    9.8620   18.1390 C   0  0  0  0  0  0  0  0  0  0  0  0
  -23.7220   11.1880   17.7330 C   0  0  0  0  0  0  0  0  0  0  0  0
  -22.5630    9.5890   19.1300 N   0  0  0  0  0  0  0  0  0  0  0  0
  -22.9540   12.2460   18.3840 C   0  0  0  0  0  0  0  0  0  0  0  0
  -24.6600   11.4510   16.7380 C   0  0  0  0  0  0  0  0  0  0  0  0
  -22.0650   11.8680   19.3400 C   0  0  0  0  0  0  0  0  0  0  0  0
  -21.8200   10.5350   19.7630 C   0  0  0  0  0  0  0  0  0  0  0  0
  -21.0180   10.2150   20.6190 O   0  0  0  0  0  0  0  0  0  0  0  0
  -22.4250    8.6150   19.3990 H   0  0  0  0  0  0  0  0  0  0  0  0
  -23.1550   13.5460   18.0230 N   0  0  0  0  0  0  0  0  0  0  0  0
  -22.4110   14.0330   16.8640 C   0  0  0  0  0  0  0  0  0  0  0  0
  -22.9340   15.3900   16.4420 C   0  0  0  0  0  0  0  0  0  0  0  0
  -22.8690   16.3360   17.5490 N   0  0  0  0  0  0  0  0  0  0  0  0
  -23.6710   15.8380   18.6580 C   0  0  0  0  0  0  0  0  0  0  0  0
  -23.3270   17.6450   17.1320 C   0  0  0  0  0  0  0  0  0  0  0  0
  -23.1600   14.5030   19.1310 C   0  0  0  0  0  0  0  0  0  0  0  0
  1  9  2  0  0  0  0
  1  5  1  0  0  0  0
  1  2  1  0  0  0  0
  2  3  2  0  0  0  0
  2 11  1  0  0  0  0
  3  4  1  0  0  0  0
  4  7  1  0  0  0  0
  5  6  3  0  0  0  0
  7  8  1  0  0  0  0
  7  9  1  0  0  0  0
  9 10  1  0  0  0  0
 11 12  1  0  0  0  0
 11 13  1  0  0  0  0
 13 14  2  0  0  0  0
 13 20  1  0  0  0  0
 14 15  1  0  0  0  0
 15 16  2  0  0  0  0
 16 17  1  0  0  0  0
 16 18  1  0  0  0  0
 17 20  2  0  0  0  0
 17 19  1  0  0  0  0
 18 24  1  0  0  0  0
 18 22  1  0  0  0  0
 19 25  1  0  0  0  0
 19 21  2  0  0  0  0
 21 22  1  0  0  0  0
 22 23  2  0  0  0  0
 25 26  1  0  0  0  0
 25 31  1  0  0  0  0
 26 27  1  0  0  0  0
 27 28  1  0  0  0  0
 28 30  1  0  0  0  0
 28 29  1  0  0  0  0
 29 31  1  0  0  0  0
M  END
>  <MODEL>
1

>  <REMARK>
 VINA RESULT:    -7.294      0.000      0.000
 INTER + INTRA:          -8.998
 INTER:                  -8.573
 INTRA:                  -0.425
 UNBOUND:                -0.425
  3 active torsions:
  status: ('A' for Active; 'I' for Inactive)
    1  A    between atoms: C_2  and  N_16 
    2  A    between atoms: C_5  and  N_16 
    3  A    between atoms: C_19  and  N_20 

>  <COMPND>
    /home/daniil/Downloads/ml_docking_review/databases/Vina/outputs/7OKF_VH5/7OKF_VH5.pdbqt 

>  <AUTHOR>
    GENERATED BY OPEN BABEL 3.2.1

>  <MASTER>
        0    0    0    0    0    0    0    0   31    0   31    0

$$$$
