../../databases/Vina/outputs/7ZXZ_K9R/7ZXZ_K9R1.pdb
 OpenBabel08242612033D

 36 39  0  0  1  0  0  0  0  0999 V2000
   43.3970  -21.3390   14.2760 N   0  0  0  0  0  0  0  0  0  0  0  0
   42.9920  -21.0230   13.3960 H   0  0  0  0  0  0  0  0  0  0  0  0
   44.0220  -22.5230   14.3210 C   0  0  0  0  0  0  0  0  0  0  0  0
   44.5480  -22.9700   15.3600 O   0  0  0  0  0  0  0  0  0  0  0  0
   43.2830  -20.5040   15.4420 C   0  0  1  0  0  0  0  0  0  0  0  0
   43.2190  -19.0730   14.9370 C   0  0  0  0  0  0  0  0  0  0  0  0
   42.1260  -18.4060   15.6700 C   0  0  2  0  0  0  0  0  0  0  0  0
   43.8940  -18.5660   14.0610 O   0  0  0  0  0  0  0  0  0  0  0  0
   41.3560  -19.3120   16.3480 C   0  0  0  0  0  0  0  0  0  0  0  0
   40.4500  -18.9940   17.1030 O   0  0  0  0  0  0  0  0  0  0  0  0
   41.9810  -20.6750   16.2480 C   0  0  0  0  0  0  0  0  0  0  0  0
   41.6560  -17.1430   14.9530 C   0  0  0  0  0  0  0  0  0  0  0  0
   42.2760  -15.9260   15.2130 C   0  0  0  0  0  0  0  0  0  0  0  0
   41.8050  -14.7400   14.6560 C   0  0  0  0  0  0  0  0  0  0  0  0
   40.6830  -14.7900   13.8350 C   0  0  0  0  0  0  0  0  0  0  0  0
   40.0560  -15.9980   13.5450 C   0  0  0  0  0  0  0  0  0  0  0  0
   40.5620  -17.1700   14.1010 C   0  0  0  0  0  0  0  0  0  0  0  0
   42.5200  -13.4350   14.9040 C   0  0  0  0  0  0  0  0  0  0  0  0
   41.3580  -12.0210   14.9500 S   0  0  0  0  0  0  0  0  0  0  0  0
   38.8640  -16.0450   12.6300 C   0  0  0  0  0  0  0  0  0  0  0  0
   37.6170  -16.7500   13.7160 S   0  0  0  0  0  0  0  0  0  0  0  0
   44.1980  -23.2110   12.9910 C   0  0  0  0  0  0  0  0  0  0  0  0
   45.6240  -23.6400   12.7450 C   0  0  0  0  0  0  0  0  0  0  0  0
   46.5680  -22.4380   12.5440 C   0  0  0  0  0  0  0  0  0  0  0  0
   47.6800  -22.6630   11.5710 C   0  0  0  0  0  0  0  0  0  0  0  0
   47.5180  -21.9140   10.2430 C   0  0  2  0  0  0  0  0  0  0  0  0
   46.9120  -22.8280    8.8140 S   0  0  0  0  0  0  0  0  0  0  0  0
   47.2780  -21.4010    7.7350 C   0  0  0  0  0  0  0  0  0  0  0  0
   48.6590  -20.9340    8.1820 C   0  0  1  0  0  0  0  0  0  0  0  0
   48.8310  -21.2570    9.7070 C   0  0  2  0  0  0  0  0  0  0  0  0
   49.7030  -21.7270    7.5800 N   0  0  0  0  0  0  0  0  0  0  0  0
   49.9620  -22.1790    9.6860 N   0  0  0  0  0  0  0  0  0  0  0  0
   50.4300  -22.4150    8.4390 C   0  0  0  0  0  0  0  0  0  0  0  0
   50.3580  -22.6020   10.5240 H   0  0  0  0  0  0  0  0  0  0  0  0
   51.3940  -23.1070    8.1700 O   0  0  0  0  0  0  0  0  0  0  0  0
   49.8650  -21.7530    6.5730 H   0  0  0  0  0  0  0  0  0  0  0  0
  1  2  1  0  0  0  0
  1  3  1  0  0  0  0
  3 22  1  0  0  0  0
  3  4  2  0  0  0  0
  5  1  1  6  0  0  0
  5  6  1  0  0  0  0
  5 11  1  0  0  0  0
  6  8  2  0  0  0  0
  6  7  1  0  0  0  0
  7 12  1  6  0  0  0
  7  9  1  0  0  0  0
  9 11  1  0  0  0  0
  9 10  2  0  0  0  0
 12 17  2  0  0  0  0
 12 13  1  0  0  0  0
 13 14  2  0  0  0  0
 14 15  1  0  0  0  0
 14 18  1  0  0  0  0
 15 16  2  0  0  0  0
 16 20  1  0  0  0  0
 16 17  1  0  0  0  0
 18 19  1  0  0  0  0
 20 21  1  0  0  0  0
 22 23  1  0  0  0  0
 23 24  1  0  0  0  0
 24 25  1  0  0  0  0
 26 25  1  1  0  0  0
 26 27  1  0  0  0  0
 26 30  1  0  0  0  0
 27 28  1  0  0  0  0
 29 28  1  6  0  0  0
 29 31  1  0  0  0  0
 29 30  1  0  0  0  0
 30 32  1  6  0  0  0
 31 36  1  0  0  0  0
 31 33  1  0  0  0  0
 32 33  1  0  0  0  0
 32 34  1  0  0  0  0
 33 35  2  0  0  0  0
M  END
>  <MODEL>
1

>  <REMARK>
 VINA RESULT:    -9.525      0.000      0.000
 INTER + INTRA:         -15.455
 INTER:                 -14.537
 INTRA:                  -0.918
 UNBOUND:                -0.918
  9 active torsions:
  status: ('A' for Active; 'I' for Inactive)
    1  A    between atoms: C_3  and  C_4 
    2  A    between atoms: C_3  and  C_11 
    3  A    between atoms: C_4  and  C_7 
    4  A    between atoms: N_5  and  C_21 
       I    between atoms: N_5  and  C_7 
    5  A    between atoms: C_10  and  C_11 
    6  A    between atoms: C_10  and  C_12 
    7  A    between atoms: C_25  and  C_27 
    8  A    between atoms: C_29  and  C_30 
    9  A    between atoms: C_33  and  C_35 

>  <COMPND>
    /home/daniil/Downloads/ml_docking_review/databases/Vina/outputs/7ZXZ_K9R/7ZXZ_K9R.pdbqt 

>  <AUTHOR>
    GENERATED BY OPEN BABEL 3.2.1

>  <MASTER>
        0    0    0    0    0    0    0    0   36    0   36    0

$$$$
