../../databases/Vina/outputs/7V3S_5I9/7V3S_5I91.pdb
 OpenBabel08242616453D

 42 47  0  0  1  0  0  0  0  0999 V2000
   -9.3850  -16.6030   31.4100 C   0  0  0  0  0  0  0  0  0  0  0  0
   -9.3910  -14.4960   30.2480 C   0  0  0  0  0  0  0  0  0  0  0  0
   -9.1760  -16.5400   29.0420 C   0  0  0  0  0  0  0  0  0  0  0  0
   -9.2560  -17.2700   30.2060 C   0  0  0  0  0  0  0  0  0  0  0  0
   -9.4510  -15.2200   31.4310 C   0  0  0  0  0  0  0  0  0  0  0  0
   -9.2420  -15.1700   29.0390 C   0  0  0  0  0  0  0  0  0  0  0  0
   -9.0300  -17.1990   27.8710 F   0  0  0  0  0  0  0  0  0  0  0  0
   -9.4570  -13.0780   30.3420 N   0  0  0  0  0  0  0  0  0  0  0  0
  -10.5550  -12.3230   30.5210 C   0  0  0  0  0  0  0  0  0  0  0  0
  -11.6740  -12.7730   30.7090 O   0  0  0  0  0  0  0  0  0  0  0  0
   -8.5720  -12.5780   30.2640 H   0  0  0  0  0  0  0  0  0  0  0  0
  -10.3130  -10.8400   30.4980 C   0  0  0  0  0  0  0  0  0  0  0  0
  -11.3610   -9.9700   31.1960 C   0  0  0  0  0  0  0  0  0  0  0  0
  -10.0690  -10.2260   31.8810 C   0  0  0  0  0  0  0  0  0  0  0  0
   -9.5480  -10.2640   29.3330 C   0  0  0  0  0  0  0  0  0  0  0  0
   -8.3350  -10.3760   29.2680 O   0  0  0  0  0  0  0  0  0  0  0  0
  -10.2560   -9.5990   28.4070 N   0  0  0  0  0  0  0  0  0  0  0  0
  -11.2690   -9.5460   28.5190 H   0  0  0  0  0  0  0  0  0  0  0  0
   -9.6660   -8.9640   27.2780 C   0  0  0  0  0  0  0  0  0  0  0  0
   -8.9440   -7.7920   27.4500 C   0  0  0  0  0  0  0  0  0  0  0  0
   -8.3980   -7.1350   26.3590 C   0  0  0  0  0  0  0  0  0  0  0  0
   -8.6180   -7.6520   25.1160 C   0  0  0  0  0  0  0  0  0  0  0  0
   -8.0920   -7.0020   24.0440 F   0  0  0  0  0  0  0  0  0  0  0  0
   -9.3490   -8.7870   24.9010 C   0  0  0  0  0  0  0  0  0  0  0  0
   -9.8890   -9.4450   25.9950 C   0  0  0  0  0  0  0  0  0  0  0  0
   -9.1560  -18.6580   30.1820 O   0  0  0  0  0  0  0  0  0  0  0  0
  -10.3250  -19.3910   30.3960 C   0  0  2  0  0  0  0  0  0  0  0  0
  -11.5730  -18.9350   30.0850 C   0  0  0  0  0  0  0  0  0  0  0  0
  -12.6910  -19.7750   30.3190 C   0  0  0  0  0  0  0  0  0  0  0  0
  -12.5660  -21.0260   30.7030 N   0  0  0  0  0  0  0  0  0  0  0  0
  -11.2360  -21.6390   30.5430 C   0  0  2  0  0  0  0  0  0  0  0  0
  -13.3520  -21.5470   31.0920 H   0  0  0  0  0  0  0  0  0  0  0  0
  -11.0830  -22.9350   31.1580 N   0  0  0  0  0  0  0  0  0  0  0  0
  -10.1330  -20.7340   31.0360 C   0  0  1  0  0  0  0  0  0  0  0  0
   -9.8190  -23.4770   31.0590 C   0  0  0  0  0  0  0  0  0  0  0  0
  -11.8510  -23.4140   31.6290 H   0  0  0  0  0  0  0  0  0  0  0  0
   -9.6090  -24.8500   31.2090 C   0  0  0  0  0  0  0  0  0  0  0  0
   -8.7200  -22.6440   30.8120 C   0  0  0  0  0  0  0  0  0  0  0  0
   -8.3420  -25.3640   31.0970 C   0  0  0  0  0  0  0  0  0  0  0  0
   -7.2630  -24.5350   30.8510 C   0  0  0  0  0  0  0  0  0  0  0  0
   -7.4400  -23.1720   30.7120 C   0  0  0  0  0  0  0  0  0  0  0  0
   -8.8490  -21.2810   30.6610 O   0  0  0  0  0  0  0  0  0  0  0  0
  1  4  2  0  0  0  0
  1  5  1  0  0  0  0
  2  6  1  0  0  0  0
  2  8  1  0  0  0  0
  2  5  2  0  0  0  0
  3  7  1  0  0  0  0
  3  6  2  0  0  0  0
  3  4  1  0  0  0  0
  4 26  1  0  0  0  0
  8 11  1  0  0  0  0
  8  9  1  0  0  0  0
  9 12  1  0  0  0  0
  9 10  2  0  0  0  0
 12 15  1  0  0  0  0
 12 13  1  0  0  0  0
 12 14  1  0  0  0  0
 13 14  1  0  0  0  0
 15 17  1  0  0  0  0
 15 16  2  0  0  0  0
 17 19  1  0  0  0  0
 17 18  1  0  0  0  0
 19 25  2  0  0  0  0
 19 20  1  0  0  0  0
 20 21  2  0  0  0  0
 21 22  1  0  0  0  0
 22 23  1  0  0  0  0
 22 24  2  0  0  0  0
 24 25  1  0  0  0  0
 27 26  1  1  0  0  0
 27 28  1  0  0  0  0
 27 34  1  0  0  0  0
 28 29  2  0  0  0  0
 29 30  1  0  0  0  0
 30 32  1  0  0  0  0
 31 30  1  1  0  0  0
 31 34  1  0  0  0  0
 31 33  1  0  0  0  0
 33 35  1  0  0  0  0
 33 36  1  0  0  0  0
 34 42  1  6  0  0  0
 35 38  2  0  0  0  0
 35 37  1  0  0  0  0
 37 39  2  0  0  0  0
 38 42  1  0  0  0  0
 38 41  1  0  0  0  0
 39 40  1  0  0  0  0
 40 41  2  0  0  0  0
M  END
>  <MODEL>
1

>  <REMARK>
 VINA RESULT:   -12.391      0.000      0.000
 INTER + INTRA:         -17.577
 INTER:                 -16.737
 INTRA:                  -0.840
 UNBOUND:                -0.840
  6 active torsions:
  status: ('A' for Active; 'I' for Inactive)
       I    between atoms: N_3  and  C_25 
    1  A    between atoms: N_3  and  C_12 
       I    between atoms: C_15  and  N_37 
    2  A    between atoms: C_15  and  C_26 
    3  A    between atoms: C_21  and  O_40 
    4  A    between atoms: C_22  and  O_40 
    5  A    between atoms: C_25  and  C_26 
    6  A    between atoms: C_28  and  N_37 

>  <COMPND>
    /home/daniil/Downloads/ml_docking_review/databases/Vina/outputs/7V3S_5I9/7V3S_5I9.pdbqt 

>  <AUTHOR>
    GENERATED BY OPEN BABEL 3.2.1

>  <MASTER>
        0    0    0    0    0    0    0    0   42    0   42    0

$$$$
