../../databases/Vina/outputs/6ZR8_QOZ/6ZR8_QOZ1.pdb
 OpenBabel08242616453D

 36 39  0  0  0  0  0  0  0  0999 V2000
   -1.4230    5.5130   12.3170 N   0  0  0  0  0  0  0  0  0  0  0  0
   -1.2750    4.0740   12.1040 C   0  0  0  0  0  0  0  0  0  0  0  0
   -2.6240    3.3970   12.1430 C   0  0  0  0  0  0  0  0  0  0  0  0
   -1.9920    5.7100   13.6520 C   0  0  0  0  0  0  0  0  0  0  0  0
   -3.3600    5.0710   13.7320 C   0  0  0  0  0  0  0  0  0  0  0  0
   -3.3120    3.6360   13.4180 N   0  0  0  0  0  0  0  0  0  0  0  0
   -0.1400    6.2010   12.1710 C   0  0  0  0  0  0  0  0  0  0  0  0
    0.4720    6.0710   10.7860 C   0  0  0  0  0  0  0  0  0  0  0  0
    1.5010    5.1970   10.7400 N   0  0  0  0  0  0  0  0  0  0  0  0
    1.7500    4.7500   11.6220 H   0  0  0  0  0  0  0  0  0  0  0  0
    0.0230    6.6600    9.8090 O   0  0  0  0  0  0  0  0  0  0  0  0
    2.2730    4.8290    9.6160 C   0  0  0  0  0  0  0  0  0  0  0  0
    2.4390    3.4810    9.3210 C   0  0  0  0  0  0  0  0  0  0  0  0
    3.1800    3.0950    8.2190 C   0  0  0  0  0  0  0  0  0  0  0  0
    3.7660    4.0610    7.4160 C   0  0  0  0  0  0  0  0  0  0  0  0
    3.6230    5.4060    7.7080 C   0  0  0  0  0  0  0  0  0  0  0  0
    2.8580    5.7880    8.7990 C   0  0  0  0  0  0  0  0  0  0  0  0
    4.6840    3.5390    6.0050 S   0  0  0  0  0  0  0  0  0  0  0  0
    4.4670    2.1290    5.8790 O   0  0  0  0  0  0  0  0  0  0  0  0
    4.2690    4.3800    4.9200 O   0  0  0  0  0  0  0  0  0  0  0  0
    6.2410    3.7960    6.2980 N   0  0  0  0  0  0  0  0  0  0  0  0
    6.9750    3.0900    6.2310 H   0  0  0  0  0  0  0  0  0  0  0  0
    6.3590    4.7740    6.5580 H   0  0  0  0  0  0  0  0  0  0  0  0
   -4.6780    3.0690   13.3840 C   0  0  0  0  0  0  0  0  0  0  0  0
   -4.7020    1.7590   12.6030 C   0  0  0  0  0  0  0  0  0  0  0  0
   -5.1600    1.7250   11.2920 C   0  0  0  0  0  0  0  0  0  0  0  0
   -5.0930    0.5600   10.5470 C   0  0  0  0  0  0  0  0  0  0  0  0
   -4.5830   -0.5890   11.1150 C   0  0  0  0  0  0  0  0  0  0  0  0
   -4.1470   -0.5760   12.4250 C   0  0  0  0  0  0  0  0  0  0  0  0
   -4.1920    0.5960   13.1620 C   0  0  0  0  0  0  0  0  0  0  0  0
   -5.2340    2.8950   14.7910 C   0  0  0  0  0  0  0  0  0  0  0  0
   -6.3810    3.5780   15.1680 C   0  0  0  0  0  0  0  0  0  0  0  0
   -6.9090    3.4330   16.4420 C   0  0  0  0  0  0  0  0  0  0  0  0
   -6.2940    2.5980   17.3510 C   0  0  0  0  0  0  0  0  0  0  0  0
   -5.1460    1.9230   16.9930 C   0  0  0  0  0  0  0  0  0  0  0  0
   -4.6070    2.0810   15.7260 C   0  0  0  0  0  0  0  0  0  0  0  0
  1  2  1  0  0  0  0
  1  7  1  0  0  0  0
  1  4  1  0  0  0  0
  2  3  1  0  0  0  0
  3  6  1  0  0  0  0
  4  5  1  0  0  0  0
  5  6  1  0  0  0  0
  6 24  1  0  0  0  0
  7  8  1  0  0  0  0
  8 11  2  0  0  0  0
  8  9  1  0  0  0  0
  9 12  1  0  0  0  0
  9 10  1  0  0  0  0
 12 17  2  0  0  0  0
 12 13  1  0  0  0  0
 13 14  2  0  0  0  0
 14 15  1  0  0  0  0
 15 18  1  0  0  0  0
 15 16  2  0  0  0  0
 16 17  1  0  0  0  0
 18 20  2  0  0  0  0
 18 19  2  0  0  0  0
 18 21  1  0  0  0  0
 21 22  1  0  0  0  0
 21 23  1  0  0  0  0
 24 25  1  0  0  0  0
 24 31  1  0  0  0  0
 25 26  2  0  0  0  0
 25 30  1  0  0  0  0
 26 27  1  0  0  0  0
 27 28  2  0  0  0  0
 28 29  1  0  0  0  0
 29 30  2  0  0  0  0
 31 32  2  0  0  0  0
 31 36  1  0  0  0  0
 32 33  1  0  0  0  0
 33 34  2  0  0  0  0
 34 35  1  0  0  0  0
 35 36  2  0  0  0  0
M  END
>  <MODEL>
1

>  <REMARK>
 VINA RESULT:    -9.404      0.000      0.000
 INTER + INTRA:         -13.527
 INTER:                 -13.527
 INTRA:                  -0.001
 UNBOUND:                -0.001
  8 active torsions:
  status: ('A' for Active; 'I' for Inactive)
    1  A    between atoms: C_3  and  S_4 
    2  A    between atoms: S_4  and  N_34 
    3  A    between atoms: C_9  and  N_10 
       I    between atoms: N_10  and  C_12 
    4  A    between atoms: C_12  and  C_14 
    5  A    between atoms: C_14  and  N_15 
    6  A    between atoms: N_20  and  C_21 
    7  A    between atoms: C_21  and  C_28 
    8  A    between atoms: C_21  and  C_22 

>  <COMPND>
    /home/daniil/Downloads/ml_docking_review/databases/Vina/outputs/6ZR8_QOZ/6ZR8_QOZ.pdbqt 

>  <AUTHOR>
    GENERATED BY OPEN BABEL 3.2.1

>  <MASTER>
        0    0    0    0    0    0    0    0   36    0   36    0

$$$$
