../../databases/Vina/outputs/7V3N_AKG/7V3N_AKG1.pdb
 OpenBabel08242616453D

 10  9  0  0  0  0  0  0  0  0999 V2000
  128.1110   82.5020   -4.7220 C   0  0  0  0  0  0  0  0  0  0  0  0
  127.4640   83.4510   -4.3050 O   0  0  0  0  0  0  0  0  0  0  0  0
  128.6150   81.4570   -3.8350 C   0  0  0  0  0  0  0  0  0  0  0  0
  127.8020   80.6620   -3.3130 O   0  0  0  0  0  0  0  0  0  0  0  0
  129.8360   81.3580   -3.6070 O   0  0  0  0  0  0  0  0  0  0  0  0
  128.3920   82.3900   -6.2000 C   0  0  0  0  0  0  0  0  0  0  0  0
  128.8750   83.7370   -6.6960 C   0  0  0  0  0  0  0  0  0  0  0  0
  130.3790   83.7530   -6.8340 C   0  0  0  0  0  0  0  0  0  0  0  0
  130.8930   84.6920   -7.4800 O   0  0  0  0  0  0  0  0  0  0  0  0
  131.0490   82.8180   -6.3430 O   0  0  0  0  0  0  0  0  0  0  0  0
  1  6  1  0  0  0  0
  1  2  2  0  0  0  0
  1  3  1  0  0  0  0
  3  5  2  0  0  0  0
  3  4  1  0  0  0  0
  6  7  1  0  0  0  0
  7  8  1  0  0  0  0
  8  9  2  0  0  0  0
  8 10  1  0  0  0  0
M  END
>  <MODEL>
1

>  <REMARK>
 VINA RESULT:    -5.794      0.000      0.000
 INTER + INTRA:          -7.314
 INTER:                  -7.149
 INTRA:                  -0.165
 UNBOUND:                -0.165
  4 active torsions:
  status: ('A' for Active; 'I' for Inactive)
    1  A    between atoms: C_1  and  C_4 
    2  A    between atoms: C_4  and  C_6 
    3  A    between atoms: C_6  and  C_7 
    4  A    between atoms: C_7  and  C_8 

>  <COMPND>
    /home/daniil/Downloads/ml_docking_review/databases/Vina/outputs/7V3N_AKG/7V3N_AKG.pdbqt 

>  <AUTHOR>
    GENERATED BY OPEN BABEL 3.2.1

>  <MASTER>
        0    0    0    0    0    0    0    0   10    0   10    0

$$$$
