../../databases/Vina/outputs/7QFM_AY3/7QFM_AY31.pdb
 OpenBabel08242616453D

 21 23  0  0  0  0  0  0  0  0999 V2000
 -119.0700  205.0400   -1.1480 C   0  0  0  0  0  0  0  0  0  0  0  0
 -119.4090  205.2320    0.1360 C   0  0  0  0  0  0  0  0  0  0  0  0
 -119.3800  207.6790    0.1150 O   0  0  0  0  0  0  0  0  0  0  0  0
 -119.5320  206.6160    0.7110 C   0  0  0  0  0  0  0  0  0  0  0  0
 -119.7780  202.9450    1.3630 C   0  0  0  0  0  0  0  0  0  0  0  0
 -119.7040  204.3310    1.2330 C   0  0  0  0  0  0  0  0  0  0  0  0
 -119.8590  206.4700    2.0140 N   0  0  0  0  0  0  0  0  0  0  0  0
 -120.0070  207.2460    2.6590 H   0  0  0  0  0  0  0  0  0  0  0  0
 -120.1090  202.3870    2.5890 C   0  0  0  0  0  0  0  0  0  0  0  0
 -120.3620  203.1910    3.6920 C   0  0  0  0  0  0  0  0  0  0  0  0
 -120.2970  204.5730    3.5920 C   0  0  0  0  0  0  0  0  0  0  0  0
 -119.9700  205.1310    2.3650 C   0  0  0  0  0  0  0  0  0  0  0  0
 -118.8840  203.7790   -1.8650 C   0  0  0  0  0  0  0  0  0  0  0  0
 -117.9260  202.8260   -1.5200 C   0  0  0  0  0  0  0  0  0  0  0  0
 -117.8280  201.6280   -2.2050 C   0  0  0  0  0  0  0  0  0  0  0  0
 -118.6780  201.3520   -3.2690 C   0  0  0  0  0  0  0  0  0  0  0  0
 -119.6210  202.3040   -3.6290 C   0  0  0  0  0  0  0  0  0  0  0  0
 -119.7250  203.4930   -2.9360 C   0  0  0  0  0  0  0  0  0  0  0  0
 -118.6120  200.0620   -4.0030 C   0  0  0  0  0  0  0  0  0  0  0  0
 -119.3570  199.9890   -5.0760 O   0  0  0  0  0  0  0  0  0  0  0  0
 -117.8910  199.1490   -3.6000 O   0  0  0  0  0  0  0  0  0  0  0  0
  1 13  1  0  0  0  0
  1  2  2  0  0  0  0
  2  4  1  0  0  0  0
  2  6  1  0  0  0  0
  3  4  2  0  0  0  0
  4  7  1  0  0  0  0
  5  6  2  0  0  0  0
  5  9  1  0  0  0  0
  6 12  1  0  0  0  0
  7 12  1  0  0  0  0
  7  8  1  0  0  0  0
  9 10  2  0  0  0  0
 10 11  1  0  0  0  0
 11 12  2  0  0  0  0
 13 18  2  0  0  0  0
 13 14  1  0  0  0  0
 14 15  2  0  0  0  0
 15 16  1  0  0  0  0
 16 19  1  0  0  0  0
 16 17  2  0  0  0  0
 17 18  1  0  0  0  0
 19 20  2  0  0  0  0
 19 21  1  0  0  0  0
M  END
>  <MODEL>
1

>  <REMARK>
 VINA RESULT:    -9.694      0.000      0.000
 INTER + INTRA:         -11.329
 INTER:                 -10.828
 INTRA:                  -0.501
 UNBOUND:                -0.501
  2 active torsions:
  status: ('A' for Active; 'I' for Inactive)
    1  A    between atoms: C_3  and  C_4 
    2  A    between atoms: C_8  and  C_10 

>  <COMPND>
    /home/daniil/Downloads/ml_docking_review/databases/Vina/outputs/7QFM_AY3/7QFM_AY3.pdbqt 

>  <AUTHOR>
    GENERATED BY OPEN BABEL 3.2.1

>  <MASTER>
        0    0    0    0    0    0    0    0   21    0   21    0

$$$$
