../../databases/Vina/outputs/7B0E_C2E/7B0E_C2E1.pdb
 OpenBabel08242616453D

 58 64  0  0  1  0  0  0  0  0999 V2000
  -24.4990  -28.5570   -0.8650 P   0  0  1  0  0  0  0  0  0  0  0  0
  -23.2300  -27.7350   -1.1940 O   0  0  0  0  0  0  0  0  0  0  0  0
  -24.2710  -30.0120   -0.7260 O   0  0  0  0  0  0  0  0  0  0  0  0
  -25.1490  -27.8560    0.4070 O   0  0  0  0  0  0  0  0  0  0  0  0
  -26.1990  -28.4580    1.1640 C   0  0  0  0  0  0  0  0  0  0  0  0
  -26.5330  -27.6530    2.3920 C   0  0  1  0  0  0  0  0  0  0  0  0
  -25.4140  -27.6770    3.3050 O   0  0  0  0  0  0  0  0  0  0  0  0
  -26.7540  -26.1650    2.1810 C   0  0  1  0  0  0  0  0  0  0  0  0
  -28.0260  -25.8790    1.6270 O   0  0  0  0  0  0  0  0  0  0  0  0
  -26.5720  -25.6260    3.5970 C   0  0  2  0  0  0  0  0  0  0  0  0
  -25.3800  -26.4760    4.0600 C   0  0  2  0  0  0  0  0  0  0  0  0
  -28.2630  -24.7760    0.5060 P   0  0  2  0  0  0  0  0  0  0  0  0
  -27.4710  -23.5000    0.8780 O   0  0  0  0  0  0  0  0  0  0  0  0
  -29.7370  -24.6400    0.2060 O   0  0  0  0  0  0  0  0  0  0  0  0
  -27.4680  -25.3470   -0.7420 O   0  0  0  0  0  0  0  0  0  0  0  0
  -28.0490  -26.3460   -1.5830 C   0  0  0  0  0  0  0  0  0  0  0  0
  -27.1870  -26.6160   -2.7860 C   0  0  1  0  0  0  0  0  0  0  0  0
  -27.1210  -25.4400   -3.6220 O   0  0  0  0  0  0  0  0  0  0  0  0
  -25.7250  -26.8830   -2.4880 C   0  0  1  0  0  0  0  0  0  0  0  0
  -25.5540  -28.1940   -2.0110 O   0  0  0  0  0  0  0  0  0  0  0  0
  -25.0820  -26.6440   -3.8510 C   0  0  2  0  0  0  0  0  0  0  0  0
  -25.8920  -25.4300   -4.3300 C   0  0  2  0  0  0  0  0  0  0  0  0
  -24.0750  -25.8430    3.8370 N   0  0  0  0  0  0  0  0  0  0  0  0
  -23.5990  -24.5460    4.1820 C   0  0  0  0  0  0  0  0  0  0  0  0
  -22.3330  -24.3440    3.7300 N   0  0  0  0  0  0  0  0  0  0  0  0
  -21.9950  -25.5490    3.0840 C   0  0  0  0  0  0  0  0  0  0  0  0
  -21.7580  -23.5080    3.8350 H   0  0  0  0  0  0  0  0  0  0  0  0
  -23.0470  -26.4710    3.1500 C   0  0  0  0  0  0  0  0  0  0  0  0
  -20.7880  -25.9050    2.4090 C   0  0  0  0  0  0  0  0  0  0  0  0
  -23.0910  -27.7470    2.6370 N   0  0  0  0  0  0  0  0  0  0  0  0
  -21.9380  -28.0630    1.9890 C   0  0  2  0  0  0  0  0  0  0  0  0
  -23.8880  -28.3770    2.7310 H   0  0  0  0  0  0  0  0  0  0  0  0
  -20.8380  -27.2340    1.8620 N   0  0  0  0  0  0  0  0  0  0  0  0
  -20.0240  -27.5830    1.3560 H   0  0  0  0  0  0  0  0  0  0  0  0
  -19.7630  -25.2740    2.2290 O   0  0  0  0  0  0  0  0  0  0  0  0
  -21.8770  -29.3000    1.3990 N   0  0  0  0  0  0  0  0  0  0  0  0
  -20.9850  -29.7920    1.4520 H   0  0  0  0  0  0  0  0  0  0  0  0
  -22.7240  -29.6580    0.9590 H   0  0  0  0  0  0  0  0  0  0  0  0
  -27.6630  -25.9140    4.4730 O   0  0  0  0  0  0  0  0  0  0  0  0
  -27.4040  -26.0740    5.3730 H   0  0  0  0  0  0  0  0  0  0  0  0
  -25.2990  -27.7370   -4.7400 O   0  0  0  0  0  0  0  0  0  0  0  0
  -25.6930  -28.4570   -4.2620 H   0  0  0  0  0  0  0  0  0  0  0  0
  -25.2250  -24.1600   -4.0360 N   0  0  0  0  0  0  0  0  0  0  0  0
  -24.5460  -23.4530   -5.0030 C   0  0  0  0  0  0  0  0  0  0  0  0
  -24.3590  -23.8650   -6.2960 N   0  0  0  0  0  0  0  0  0  0  0  0
  -24.1220  -22.2570   -4.4050 C   0  0  0  0  0  0  0  0  0  0  0  0
  -23.6890  -22.9420   -7.0350 C   0  0  2  0  0  0  0  0  0  0  0  0
  -24.6840  -24.7600   -6.6620 H   0  0  0  0  0  0  0  0  0  0  0  0
  -23.2290  -21.7220   -6.5570 N   0  0  0  0  0  0  0  0  0  0  0  0
  -23.4180  -21.2910   -5.1940 C   0  0  0  0  0  0  0  0  0  0  0  0
  -22.7340  -21.1030   -7.2000 H   0  0  0  0  0  0  0  0  0  0  0  0
  -23.0050  -20.1760   -4.9150 O   0  0  0  0  0  0  0  0  0  0  0  0
  -24.5090  -22.2100   -3.0500 N   0  0  0  0  0  0  0  0  0  0  0  0
  -25.1770  -23.3810   -2.8460 C   0  0  0  0  0  0  0  0  0  0  0  0
  -24.3280  -21.4670   -2.3740 H   0  0  0  0  0  0  0  0  0  0  0  0
  -23.4740  -23.2500   -8.3590 N   0  0  0  0  0  0  0  0  0  0  0  0
  -23.7710  -22.5790   -9.0680 H   0  0  0  0  0  0  0  0  0  0  0  0
  -23.0340  -24.1500   -8.5540 H   0  0  0  0  0  0  0  0  0  0  0  0
  1 20  1  0  0  0  0
  1  2  2  6  0  0  0
  1  3  1  0  0  0  0
  1  4  1  0  0  0  0
  4  5  1  0  0  0  0
  6  5  1  6  0  0  0
  6  8  1  0  0  0  0
  6  7  1  0  0  0  0
  7 11  1  0  0  0  0
  8  9  1  1  0  0  0
  8 10  1  0  0  0  0
  9 12  1  0  0  0  0
 10 11  1  0  0  0  0
 10 39  1  1  0  0  0
 11 23  1  6  0  0  0
 12 15  1  0  0  0  0
 12 14  2  6  0  0  0
 12 13  1  0  0  0  0
 15 16  1  0  0  0  0
 17 16  1  1  0  0  0
 17 18  1  0  0  0  0
 17 19  1  0  0  0  0
 18 22  1  0  0  0  0
 19 21  1  0  0  0  0
 19 20  1  6  0  0  0
 21 41  1  6  0  0  0
 21 22  1  0  0  0  0
 22 43  1  1  0  0  0
 23 28  1  0  0  0  0
 23 24  1  0  0  0  0
 24 25  1  0  0  0  0
 25 26  1  0  0  0  0
 25 27  1  0  0  0  0
 26 29  1  0  0  0  0
 26 28  2  0  0  0  0
 28 30  1  0  0  0  0
 29 33  1  0  0  0  0
 29 35  2  0  0  0  0
 30 31  1  0  0  0  0
 30 32  1  0  0  0  0
 31 36  1  6  0  0  0
 31 33  1  0  0  0  0
 33 34  1  0  0  0  0
 36 38  1  0  0  0  0
 36 37  1  0  0  0  0
 39 40  1  0  0  0  0
 41 42  1  0  0  0  0
 43 44  1  0  0  0  0
 43 54  1  0  0  0  0
 44 45  1  0  0  0  0
 44 46  2  0  0  0  0
 45 47  1  0  0  0  0
 45 48  1  0  0  0  0
 46 50  1  0  0  0  0
 46 53  1  0  0  0  0
 47 56  1  6  0  0  0
 47 49  1  0  0  0  0
 49 51  1  0  0  0  0
 49 50  1  0  0  0  0
 50 52  2  0  0  0  0
 53 54  1  0  0  0  0
 53 55  1  0  0  0  0
 56 57  1  0  0  0  0
 56 58  1  0  0  0  0
M  END
>  <MODEL>
1

>  <REMARK>
 VINA RESULT:    -9.348      0.000      0.000
 INTER + INTRA:         -13.379
 INTER:                 -11.534
 INTRA:                  -1.845
 UNBOUND:                -1.845
  6 active torsions:
  status: ('A' for Active; 'I' for Inactive)
    1  A    between atoms: C_10  and  O_11 
    2  A    between atoms: C_13  and  N_14 
    3  A    between atoms: C_23  and  N_24 
    4  A    between atoms: C_39  and  O_40 
    5  A    between atoms: C_42  and  N_43 
    6  A    between atoms: C_52  and  N_53 

>  <COMPND>
    /home/daniil/Downloads/ml_docking_review/databases/Vina/outputs/7B0E_C2E/7B0E_C2E.pdbqt 

>  <AUTHOR>
    GENERATED BY OPEN BABEL 3.2.1

>  <MASTER>
        0    0    0    0    0    0    0    0   58    0   58    0

$$$$
