../../databases/Vina/outputs/7TS6_KMI/7TS6_KMI1.pdb
 OpenBabel08242616453D

 22 23  0  0  1  0  0  0  0  0999 V2000
  -15.1960   -3.4360   -5.1420 C   0  0  0  0  0  0  0  0  0  0  0  0
  -14.4930   -1.3500   -4.1650 C   0  0  0  0  0  0  0  0  0  0  0  0
  -14.2070   -2.6580   -4.5560 C   0  0  0  0  0  0  0  0  0  0  0  0
  -16.4630   -2.8860   -5.3310 C   0  0  0  0  0  0  0  0  0  0  0  0
  -16.7390   -1.5720   -4.9540 C   0  0  0  0  0  0  0  0  0  0  0  0
  -15.7490   -0.7920   -4.3660 C   0  0  0  0  0  0  0  0  0  0  0  0
  -13.3640   -0.5680   -3.6160 C   0  0  1  0  0  0  0  0  0  0  0  0
  -13.0320    0.6240   -4.1050 N   0  0  0  0  0  0  0  0  0  0  0  0
  -12.0350    1.3380   -3.5430 C   0  0  0  0  0  0  0  0  0  0  0  0
  -13.5330    1.0000   -4.9100 H   0  0  0  0  0  0  0  0  0  0  0  0
  -11.3560    0.8820   -2.4050 C   0  0  0  0  0  0  0  0  0  0  0  0
  -11.7350    2.5260   -4.1120 N   0  0  0  0  0  0  0  0  0  0  0  0
  -11.7160   -0.3470   -1.8790 C   0  0  0  0  0  0  0  0  0  0  0  0
  -11.0390   -0.9280   -0.6720 C   0  0  0  0  0  0  0  0  0  0  0  0
  -12.7400   -1.0600   -2.4810 C   0  0  0  0  0  0  0  0  0  0  0  0
  -10.9820    3.0660   -3.6860 H   0  0  0  0  0  0  0  0  0  0  0  0
  -12.2290    2.8570   -4.9400 H   0  0  0  0  0  0  0  0  0  0  0  0
  -18.1220   -0.9980   -5.1600 C   0  0  0  0  0  0  0  0  0  0  0  0
  -18.3560   -0.7150   -6.5870 N   0  0  0  0  0  4  0  0  0  0  0  0
  -17.9710    0.6740   -6.8910 C   0  0  0  0  0  0  0  0  0  0  0  0
  -19.3160   -0.9160   -6.8640 H   0  0  0  0  0  0  0  0  0  0  0  0
  -17.8830   -1.3840   -7.1930 H   0  0  0  0  0  0  0  0  0  0  0  0
  1  4  2  0  0  0  0
  1  3  1  0  0  0  0
  2  3  2  0  0  0  0
  2  6  1  0  0  0  0
  4  5  1  0  0  0  0
  5 18  1  0  0  0  0
  5  6  2  0  0  0  0
  7  2  1  1  0  0  0
  7  8  1  0  0  0  0
  7 15  1  0  0  0  0
  8 10  1  0  0  0  0
  8  9  1  0  0  0  0
  9 12  1  0  0  0  0
  9 11  2  0  0  0  0
 11 13  1  0  0  0  0
 12 17  1  0  0  0  0
 12 16  1  0  0  0  0
 13 15  2  0  0  0  0
 13 14  1  0  0  0  0
 18 19  1  0  0  0  0
 19 22  1  0  0  0  0
 19 20  1  0  0  0  0
 19 21  1  0  0  0  0
M  END
>  <MODEL>
1

>  <REMARK>
 VINA RESULT:    -8.848      0.000      0.000
 INTER + INTRA:         -10.820
 INTER:                 -10.399
 INTRA:                  -0.421
 UNBOUND:                -0.421
  3 active torsions:
  status: ('A' for Active; 'I' for Inactive)
    1  A    between atoms: C_2  and  C_9 
    2  A    between atoms: C_11  and  C_13 
    3  A    between atoms: C_13  and  N_20 

>  <COMPND>
    /home/daniil/Downloads/ml_docking_review/databases/Vina/outputs/7TS6_KMI/7TS6_KMI.pdbqt 

>  <AUTHOR>
    GENERATED BY OPEN BABEL 3.2.1

>  <MASTER>
        0    0    0    0    0    0    0    0   22    0   22    0

$$$$
