../../databases/Vina/outputs/7WUX_6OI/7WUX_6OI1.pdb
 OpenBabel08242612033D

 24 23  0  0  1  0  0  0  0  0999 V2000
   21.7900   18.6210  -11.5650 C   0  0  1  0  0  0  0  0  0  0  0  0
   22.6090   19.3540  -10.4890 C   0  0  2  0  0  0  0  0  0  0  0  0
   22.7200   20.8540  -10.7160 C   0  0  0  0  0  0  0  0  0  0  0  0
   24.0670   21.2240  -11.1690 O   0  0  0  0  0  0  0  0  0  0  0  0
   24.2960   21.5090  -12.7390 S   0  0  0  0  0  0  0  0  0  0  0  0
   25.2190   22.6170  -12.8110 O   0  0  0  0  0  0  0  0  0  0  0  0
   23.0060   21.8130  -13.3210 O   0  0  0  0  0  0  0  0  0  0  0  0
   24.8580   20.2590  -13.2180 O   0  0  0  0  0  0  0  0  0  0  0  0
   23.9890   18.7810  -10.4040 N   0  0  0  0  0  4  0  0  0  0  0  0
   24.5950   19.3100   -9.7770 H   0  0  0  0  0  0  0  0  0  0  0  0
   24.0150   17.8920   -9.9050 H   0  0  0  0  0  0  0  0  0  0  0  0
   24.3700   18.7110  -11.3480 H   0  0  0  0  0  0  0  0  0  0  0  0
   21.2300   19.5800  -12.4530 O   0  0  0  0  0  0  0  0  0  0  0  0
   20.8960   20.3110  -11.9480 H   0  0  0  0  0  0  0  0  0  0  0  0
   22.5830   17.6070  -12.3880 C   0  0  0  0  0  0  0  0  0  0  0  0
   21.9430   17.2160  -13.7150 C   0  0  0  0  0  0  0  0  0  0  0  0
   22.7240   17.6270  -14.9720 C   0  0  1  0  0  0  0  0  0  0  0  0
   22.0920   17.0600  -16.2500 C   0  0  0  0  0  0  0  0  0  0  0  0
   21.5770   15.9290  -16.1760 O   0  0  0  0  0  0  0  0  0  0  0  0
   22.1550   17.7640  -17.2810 O   0  0  0  0  0  0  0  0  0  0  0  0
   22.8170   19.1100  -15.0830 N   0  0  0  0  0  4  0  0  0  0  0  0
   23.4930   19.3930  -15.7920 H   0  0  0  0  0  0  0  0  0  0  0  0
   21.9770   19.5100  -15.5020 H   0  0  0  0  0  0  0  0  0  0  0  0
   23.0240   19.5330  -14.1780 H   0  0  0  0  0  0  0  0  0  0  0  0
  1 13  1  0  0  0  0
  1 15  1  6  0  0  0
  1  2  1  0  0  0  0
  2  3  1  6  0  0  0
  2  9  1  0  0  0  0
  3  4  1  0  0  0  0
  4  5  1  0  0  0  0
  5  7  1  0  0  0  0
  5  8  1  0  0  0  0
  5  6  1  0  0  0  0
  9 12  1  0  0  0  0
  9 11  1  0  0  0  0
  9 10  1  0  0  0  0
 13 14  1  0  0  0  0
 15 16  1  0  0  0  0
 17 16  1  1  0  0  0
 17 18  1  0  0  0  0
 17 21  1  0  0  0  0
 18 20  2  0  0  0  0
 18 19  1  0  0  0  0
 21 22  1  0  0  0  0
 21 23  1  0  0  0  0
 21 24  1  0  0  0  0
M  END
>  <MODEL>
1

>  <REMARK>
 VINA RESULT:    -6.123      0.000      0.000
 INTER + INTRA:         -11.213
 INTER:                  -9.524
 INTRA:                  -1.689
 UNBOUND:                -1.689
  11 active torsions:
  status: ('A' for Active; 'I' for Inactive)
    1  A    between atoms: N_1  and  CA_9 
    2  A    between atoms: C_5  and  C_13 
    3  A    between atoms: C_5  and  C_6 
    4  A    between atoms: C_6  and  C_7 
    5  A    between atoms: C_6  and  O_14 
    6  A    between atoms: C_7  and  C_8 
    7  A    between atoms: C_7  and  N_16 
    8  A    between atoms: C_8  and  O_20 
    9  A    between atoms: CA_9  and  C_13 
   10  A    between atoms: CA_9  and  C_10 
   11  A    between atoms: O_20  and  S_21 

>  <COMPND>
    /home/daniil/Downloads/ml_docking_review/databases/Vina/outputs/7WUX_6OI/7WUX_6OI.pdbqt 

>  <AUTHOR>
    GENERATED BY OPEN BABEL 3.2.1

>  <MASTER>
        0    0    0    0    0    0    0    0   24    0   24    0

$$$$
