../../databases/Vina/outputs/7XFA_D9J/7XFA_D9J1.pdb
 OpenBabel08242616453D

 47 51  0  0  1  0  0  0  0  0999 V2000
  -10.9580   -7.6300    1.0410 C   0  0  1  0  0  0  0  0  0  0  0  0
  -12.4530   -7.3390    0.9320 C   0  0  1  0  0  0  0  0  0  0  0  0
  -10.3970   -7.8310   -0.2760 O   0  0  0  0  0  0  0  0  0  0  0  0
  -10.9670   -9.0020   -0.8770 C   0  0  1  0  0  0  0  0  0  0  0  0
  -12.4510   -8.7810   -1.1170 C   0  0  1  0  0  0  0  0  0  0  0  0
  -13.1110   -8.5080    0.2310 C   0  0  2  0  0  0  0  0  0  0  0  0
  -10.1610   -6.5130    1.6580 C   0  0  2  0  0  0  0  0  0  0  0  0
  -10.0530   -5.2770    1.1900 N   0  0  0  0  0  0  0  0  0  0  0  0
   -9.2050   -4.6690    2.0320 C   0  0  1  0  0  0  0  0  0  0  0  0
  -10.5130   -4.8780    0.3720 H   0  0  0  0  0  0  0  0  0  0  0  0
   -8.7780   -3.2090    1.9580 C   0  0  0  0  0  0  0  0  0  0  0  0
   -8.7830   -5.4890    2.9900 N   0  0  0  0  0  0  0  0  0  0  0  0
   -9.3760   -6.6820    2.7280 N   0  0  0  0  0  0  0  0  0  0  0  0
   -8.1490   -5.2690    3.7580 H   0  0  0  0  0  0  0  0  0  0  0  0
   -9.1690   -7.8160    3.4340 C   0  0  0  0  0  0  0  0  0  0  0  0
  -10.0770   -8.1260    4.4620 C   0  0  0  0  0  0  0  0  0  0  0  0
   -9.9300   -9.2840    5.2390 C   0  0  0  0  0  0  0  0  0  0  0  0
   -8.8650  -10.1450    4.9930 C   0  0  0  0  0  0  0  0  0  0  0  0
  -11.0360   -9.6440    6.5220 Cl  0  0  0  0  0  0  0  0  0  0  0  0
   -7.9340   -9.8330    4.0040 C   0  0  0  0  0  0  0  0  0  0  0  0
   -8.0650   -8.6780    3.2000 C   0  0  0  0  0  0  0  0  0  0  0  0
   -7.0920   -8.3810    2.1790 C   0  0  0  0  0  0  0  0  0  0  0  0
   -6.5290   -7.2570    2.3610 F   0  0  0  0  0  0  0  0  0  0  0  0
   -6.1340   -9.2900    2.1620 F   0  0  0  0  0  0  0  0  0  0  0  0
   -7.6680   -8.3770    0.9260 F   0  0  0  0  0  0  0  0  0  0  0  0
  -12.9660   -7.2420    2.2690 O   0  0  0  0  0  0  0  0  0  0  0  0
  -13.7520   -7.7700    2.3410 H   0  0  0  0  0  0  0  0  0  0  0  0
  -10.2200   -9.1970   -2.2050 C   0  0  0  0  0  0  0  0  0  0  0  0
  -10.1050   -7.9720   -2.9380 O   0  0  0  0  0  0  0  0  0  0  0  0
  -10.9550   -7.6190   -3.1740 H   0  0  0  0  0  0  0  0  0  0  0  0
  -14.5550   -8.3220    0.0920 N   0  0  0  0  0  0  0  0  0  0  0  0
  -15.5170   -8.0680    1.0060 C   0  0  0  0  0  0  0  0  0  0  0  0
  -16.6810   -7.9880    0.3270 C   0  0  0  0  0  0  0  0  0  0  0  0
  -16.3980   -8.2060   -0.9740 N   0  0  0  0  0  0  0  0  0  0  0  0
  -15.0960   -8.4020   -1.1340 N   0  0  0  0  0  0  0  0  0  0  0  0
  -17.0870   -8.2190   -1.7260 H   0  0  0  0  0  0  0  0  0  0  0  0
  -17.9420   -7.7340    0.7930 C   0  0  0  0  0  0  0  0  0  0  0  0
  -18.6460   -6.5590    0.4620 C   0  0  0  0  0  0  0  0  0  0  0  0
  -19.9570   -6.3680    0.9090 C   0  0  0  0  0  0  0  0  0  0  0  0
  -20.6010   -5.2310    0.5660 F   0  0  0  0  0  0  0  0  0  0  0  0
  -20.5770   -7.3500    1.6860 C   0  0  0  0  0  0  0  0  0  0  0  0
  -22.1160   -7.2350    2.3470 Cl  0  0  0  0  0  0  0  0  0  0  0  0
  -19.8960   -8.5010    2.0200 C   0  0  0  0  0  0  0  0  0  0  0  0
  -20.5160   -9.4360    2.7900 F   0  0  0  0  0  0  0  0  0  0  0  0
  -18.6020   -8.7130    1.5660 C   0  0  0  0  0  0  0  0  0  0  0  0
  -12.6350   -7.6690   -1.9980 O   0  0  0  0  0  0  0  0  0  0  0  0
  -12.7980   -6.8830   -1.4890 H   0  0  0  0  0  0  0  0  0  0  0  0
  1  3  1  6  0  0  0
  1  2  1  0  0  0  0
  1  7  1  0  0  0  0
  2  6  1  0  0  0  0
  2 26  1  1  0  0  0
  3  4  1  0  0  0  0
  4 28  1  6  0  0  0
  4  5  1  0  0  0  0
  5 46  1  6  0  0  0
  5  6  1  0  0  0  0
  6 31  1  6  0  0  0
  7  8  1  6  0  0  0
  7 13  1  0  0  0  0
  8 10  1  0  0  0  0
  8  9  1  0  0  0  0
  9 11  1  1  0  0  0
  9 12  1  0  0  0  0
 12 13  1  0  0  0  0
 12 14  1  0  0  0  0
 13 15  1  0  0  0  0
 15 21  2  0  0  0  0
 15 16  1  0  0  0  0
 16 17  2  0  0  0  0
 17 18  1  0  0  0  0
 17 19  1  0  0  0  0
 18 20  2  0  0  0  0
 20 21  1  0  0  0  0
 21 22  1  0  0  0  0
 22 25  1  0  0  0  0
 22 24  1  0  0  0  0
 22 23  1  0  0  0  0
 26 27  1  0  0  0  0
 28 29  1  0  0  0  0
 29 30  1  0  0  0  0
 31 35  1  0  0  0  0
 31 32  1  0  0  0  0
 32 33  2  0  0  0  0
 33 34  1  0  0  0  0
 33 37  1  0  0  0  0
 34 36  1  0  0  0  0
 34 35  1  0  0  0  0
 37 38  2  0  0  0  0
 37 45  1  0  0  0  0
 38 39  1  0  0  0  0
 39 40  1  0  0  0  0
 39 41  2  0  0  0  0
 41 43  1  0  0  0  0
 41 42  1  0  0  0  0
 43 45  2  0  0  0  0
 43 44  1  0  0  0  0
 46 47  1  0  0  0  0
M  END
>  <MODEL>
1

>  <REMARK>
 VINA RESULT:    -7.760      0.000      0.000
 INTER + INTRA:         -12.771
 INTER:                 -11.163
 INTRA:                  -1.608
 UNBOUND:                -1.608
  9 active torsions:
  status: ('A' for Active; 'I' for Inactive)
    1  A    between atoms: C_2  and  C_5 
    2  A    between atoms: C_11  and  N_12 
    3  A    between atoms: C_19  and  C_20 
    4  A    between atoms: C_21  and  O_22 
    5  A    between atoms: C_25  and  C_26 
    6  A    between atoms: C_26  and  O_27 
    7  A    between atoms: C_29  and  O_30 
    8  A    between atoms: C_32  and  N_33 
    9  A    between atoms: C_38  and  C_39 

>  <COMPND>
    /home/daniil/Downloads/ml_docking_review/databases/Vina/outputs/7XFA_D9J/7XFA_D9J.pdbqt 

>  <AUTHOR>
    GENERATED BY OPEN BABEL 3.2.1

>  <MASTER>
        0    0    0    0    0    0    0    0   47    0   47    0

$$$$
