../../databases/Vina/outputs/6YQV_8K2/6YQV_8K21.pdb
 OpenBabel08242616453D

 12 12  0  0  0  0  0  0  0  0999 V2000
   11.0820  -10.4530   24.3220 C   0  0  0  0  0  0  0  0  0  0  0  0
   11.9570   -7.8650   24.6070 Cl  0  0  0  0  0  0  0  0  0  0  0  0
   11.8460   -9.4180   23.9000 C   0  0  0  0  0  0  0  0  0  0  0  0
   11.2560  -11.5880   23.5100 C   0  0  0  0  0  0  0  0  0  0  0  0
   12.7810   -9.7780   22.5090 S   0  0  0  0  0  0  0  0  0  0  0  0
   12.1460  -11.3790   22.5030 C   0  0  0  0  0  0  0  0  0  0  0  0
   12.6860  -12.5890   21.3460 S   0  0  0  0  0  0  0  0  0  0  0  0
   14.0150  -12.2090   20.9790 O   0  0  0  0  0  0  0  0  0  0  0  0
   11.6670  -12.6940   20.3590 O   0  0  0  0  0  0  0  0  0  0  0  0
   12.7610  -13.9700   22.1290 N   0  0  0  0  0  0  0  0  0  0  0  0
   12.8480  -14.8930   21.7050 H   0  0  0  0  0  0  0  0  0  0  0  0
   12.7060  -13.7480   23.1230 H   0  0  0  0  0  0  0  0  0  0  0  0
  1  4  1  0  0  0  0
  1  3  2  0  0  0  0
  2  3  1  0  0  0  0
  3  5  1  0  0  0  0
  4  6  2  0  0  0  0
  5  6  1  0  0  0  0
  6  7  1  0  0  0  0
  7  9  2  0  0  0  0
  7  8  2  0  0  0  0
  7 10  1  0  0  0  0
 10 11  1  0  0  0  0
 10 12  1  0  0  0  0
M  END
>  <MODEL>
1

>  <REMARK>
 VINA RESULT:    -5.341      0.000      0.000
 INTER + INTRA:          -5.841
 INTER:                  -5.809
 INTRA:                  -0.032
 UNBOUND:                -0.032
  2 active torsions:
  status: ('A' for Active; 'I' for Inactive)
    1  A    between atoms: C_6  and  S_7 
    2  A    between atoms: S_7  and  N_10 

>  <COMPND>
    /home/daniil/Downloads/ml_docking_review/databases/Vina/outputs/6YQV_8K2/6YQV_8K2.pdbqt 

>  <AUTHOR>
    GENERATED BY OPEN BABEL 3.2.1

>  <MASTER>
        0    0    0    0    0    0    0    0   12    0   12    0

$$$$
