../../databases/Vina/outputs/6X8D_ARA/6X8D_ARA1.pdb
 OpenBabel08242612033D

 14 14  0  0  1  0  0  0  0  0999 V2000
   23.2750   -0.6110   71.2450 C   0  0  1  0  0  0  0  0  0  0  0  0
   22.7130    0.3850   70.2650 C   0  0  1  0  0  0  0  0  0  0  0  0
   21.2450    0.2820   70.1440 C   0  0  2  0  0  0  0  0  0  0  0  0
   20.8550   -1.1280   69.8020 C   0  0  2  0  0  0  0  0  0  0  0  0
   21.4890   -2.1240   70.7720 C   0  0  0  0  0  0  0  0  0  0  0  0
   22.9200   -1.9650   70.8130 O   0  0  0  0  0  0  0  0  0  0  0  0
   24.6300   -0.5520   71.2310 O   0  0  0  0  0  0  0  0  0  0  0  0
   24.9800   -1.3310   70.8140 H   0  0  0  0  0  0  0  0  0  0  0  0
   23.1320    1.6900   70.6440 O   0  0  0  0  0  0  0  0  0  0  0  0
   24.0690    1.7650   70.5060 H   0  0  0  0  0  0  0  0  0  0  0  0
   20.7510    1.2290   69.1340 O   0  0  0  0  0  0  0  0  0  0  0  0
   20.9700    0.9220   68.2620 H   0  0  0  0  0  0  0  0  0  0  0  0
   21.1670   -1.4140   68.4380 O   0  0  0  0  0  0  0  0  0  0  0  0
   21.7950   -0.7840   68.1040 H   0  0  0  0  0  0  0  0  0  0  0  0
  1  2  1  0  0  0  0
  1  6  1  0  0  0  0
  1  7  1  6  0  0  0
  2  3  1  0  0  0  0
  2  9  1  1  0  0  0
  3 11  1  6  0  0  0
  3  4  1  0  0  0  0
  4 13  1  6  0  0  0
  4  5  1  0  0  0  0
  5  6  1  0  0  0  0
  7  8  1  0  0  0  0
  9 10  1  0  0  0  0
 11 12  1  0  0  0  0
 13 14  1  0  0  0  0
M  END
>  <MODEL>
1

>  <REMARK>
 VINA RESULT:    -5.178      0.000      0.000
 INTER + INTRA:          -5.784
 INTER:                  -5.784
 INTRA:                   0.000
 UNBOUND:                 0.000
  4 active torsions:
  status: ('A' for Active; 'I' for Inactive)
    1  A    between atoms: C_1  and  O_6 
    2  A    between atoms: C_2  and  O_8 
    3  A    between atoms: C_3  and  O_10 
    4  A    between atoms: C_4  and  O_12 

>  <COMPND>
    /home/daniil/Downloads/ml_docking_review/databases/Vina/outputs/6X8D_ARA/6X8D_ARA.pdbqt 

>  <AUTHOR>
    GENERATED BY OPEN BABEL 3.2.1

>  <MASTER>
        0    0    0    0    0    0    0    0   14    0   14    0

$$$$
