../../databases/Vina/outputs/7OCB_V88/7OCB_V881.pdb
 OpenBabel08242616453D

 45 49  0  0  1  0  0  0  0  0999 V2000
   -8.6030  -42.5090   -4.3780 C   0  0  0  0  0  0  0  0  0  0  0  0
   -9.8060  -42.3110   -2.4340 C   0  0  2  0  0  0  0  0  0  0  0  0
  -12.2020  -41.6830   -6.4370 C   0  0  0  0  0  0  0  0  0  0  0  0
  -11.0480  -41.9540   -7.1980 C   0  0  0  0  0  0  0  0  0  0  0  0
  -10.9840  -42.1080   -4.4020 C   0  0  0  0  0  0  0  0  0  0  0  0
  -12.1730  -41.7570   -5.0750 C   0  0  0  0  0  0  0  0  0  0  0  0
   -9.8720  -42.2700   -6.5770 C   0  0  0  0  0  0  0  0  0  0  0  0
   -9.8090  -42.3460   -5.1520 C   0  0  0  0  0  0  0  0  0  0  0  0
   -8.6130  -42.4630   -3.0400 N   0  0  0  0  0  0  0  0  0  0  0  0
   -7.7500  -42.5400   -2.5000 H   0  0  0  0  0  0  0  0  0  0  0  0
  -10.9960  -42.1490   -3.0360 N   0  0  0  0  0  0  0  0  0  0  0  0
  -11.8610  -42.0620   -2.5040 H   0  0  0  0  0  0  0  0  0  0  0  0
  -13.2600  -41.3220   -7.2070 O   0  0  0  0  0  0  0  0  0  0  0  0
  -14.5120  -41.0750   -6.5610 C   0  0  0  0  0  0  0  0  0  0  0  0
  -14.6260  -39.5810   -6.4540 C   0  0  0  0  0  0  0  0  0  0  0  0
  -14.5300  -39.1000   -5.0360 C   0  0  0  0  0  0  0  0  0  0  0  0
  -13.6160  -37.9740   -4.7950 N   0  0  0  0  0  0  0  0  0  0  0  0
  -14.1660  -36.5760   -4.7950 C   0  0  0  0  0  0  0  0  0  0  0  0
  -13.0050  -35.7290   -5.2200 C   0  0  0  0  0  0  0  0  0  0  0  0
  -12.8980  -34.3430   -5.2460 C   0  0  0  0  0  0  0  0  0  0  0  0
  -11.9560  -36.5110   -5.6840 C   0  0  0  0  0  0  0  0  0  0  0  0
  -11.7450  -33.7540   -5.7380 C   0  0  0  0  0  0  0  0  0  0  0  0
  -10.7010  -34.5330   -6.1870 C   0  0  0  0  0  0  0  0  0  0  0  0
  -10.8010  -35.9100   -6.1660 C   0  0  0  0  0  0  0  0  0  0  0  0
  -12.2870  -37.9710   -5.5760 C   0  0  0  0  0  0  0  0  0  0  0  0
  -11.2500  -41.9110   -8.5470 O   0  0  0  0  0  0  0  0  0  0  0  0
  -10.9300  -43.0910   -9.3100 C   0  0  0  0  0  0  0  0  0  0  0  0
   -7.4040  -42.6940   -5.0350 N   0  0  0  0  0  0  0  0  0  0  0  0
   -7.2200  -43.6300   -5.3980 H   0  0  0  0  0  0  0  0  0  0  0  0
   -6.3700  -41.6870   -5.2640 C   0  0  0  0  0  0  0  0  0  0  0  0
   -6.8230  -40.2600   -5.3770 C   0  0  0  0  0  0  0  0  0  0  0  0
   -5.6510  -39.3080   -5.0360 C   0  0  0  0  0  0  0  0  0  0  0  0
   -4.3390  -39.8960   -5.3680 N   0  0  0  0  0  0  0  0  0  0  0  0
   -4.0630  -41.0890   -4.5540 C   0  0  0  0  0  0  0  0  0  0  0  0
   -5.3430  -41.7980   -4.1580 C   0  0  0  0  0  0  0  0  0  0  0  0
   -3.1960  -38.9570   -5.3870 C   0  0  0  0  0  0  0  0  0  0  0  0
   -1.8790  -39.6270   -4.9890 C   0  0  0  0  0  0  0  0  0  0  0  0
   -3.4800  -37.7390   -4.5240 C   0  0  0  0  0  0  0  0  0  0  0  0
   -9.8160  -42.2840   -1.0860 N   0  0  0  0  0  0  0  0  0  0  0  0
   -9.0640  -41.7840   -0.6110 H   0  0  0  0  0  0  0  0  0  0  0  0
  -10.8350  -42.9260   -0.2660 C   0  0  0  0  0  0  0  0  0  0  0  0
  -11.4460  -41.9730    0.7110 C   0  0  0  0  0  0  0  0  0  0  0  0
  -12.2360  -40.9280    0.0550 N   0  0  0  0  0  0  0  0  0  0  0  0
  -13.6530  -40.9990    0.4470 C   0  0  0  0  0  0  0  0  0  0  0  0
  -11.7300  -39.5920    0.3600 C   0  0  0  0  0  0  0  0  0  0  0  0
  1  8  2  0  0  0  0
  1 28  1  0  0  0  0
  1  9  1  0  0  0  0
  2  9  1  0  0  0  0
  2 11  1  0  0  0  0
  2 39  1  1  0  0  0
  3 13  1  0  0  0  0
  3  4  2  0  0  0  0
  3  6  1  0  0  0  0
  4 26  1  0  0  0  0
  4  7  1  0  0  0  0
  5  8  1  0  0  0  0
  5  6  2  0  0  0  0
  5 11  1  0  0  0  0
  7  8  1  0  0  0  0
  9 10  1  0  0  0  0
 11 12  1  0  0  0  0
 13 14  1  0  0  0  0
 14 15  1  0  0  0  0
 15 16  1  0  0  0  0
 16 17  1  0  0  0  0
 17 25  1  0  0  0  0
 17 18  1  0  0  0  0
 18 19  1  0  0  0  0
 19 21  2  0  0  0  0
 19 20  1  0  0  0  0
 20 22  2  0  0  0  0
 21 24  1  0  0  0  0
 21 25  1  0  0  0  0
 22 23  1  0  0  0  0
 23 24  2  0  0  0  0
 26 27  1  0  0  0  0
 28 29  1  0  0  0  0
 28 30  1  0  0  0  0
 30 31  1  0  0  0  0
 30 35  1  0  0  0  0
 31 32  1  0  0  0  0
 32 33  1  0  0  0  0
 33 36  1  0  0  0  0
 33 34  1  0  0  0  0
 34 35  1  0  0  0  0
 36 37  1  0  0  0  0
 36 38  1  0  0  0  0
 39 40  1  0  0  0  0
 39 41  1  0  0  0  0
 41 42  1  0  0  0  0
 42 43  1  0  0  0  0
 43 45  1  0  0  0  0
 43 44  1  0  0  0  0
M  END
>  <MODEL>
1

>  <REMARK>
 VINA RESULT:    -7.598      0.000      0.000
 INTER + INTRA:         -15.713
 INTER:                 -13.373
 INTRA:                  -2.340
 UNBOUND:                -2.340
  13 active torsions:
  status: ('A' for Active; 'I' for Inactive)
    1  A    between atoms: N_1  and  C_8 
    2  A    between atoms: N_2  and  C_26 
    3  A    between atoms: N_2  and  C_10 
    4  A    between atoms: C_4  and  N_19 
    5  A    between atoms: C_5  and  N_19 
    6  A    between atoms: C_11  and  N_41 
    7  A    between atoms: C_11  and  C_26 
    8  A    between atoms: C_13  and  O_45 
    9  A    between atoms: C_14  and  O_45 
   10  A    between atoms: C_14  and  C_15 
   11  A    between atoms: C_15  and  C_31 
   12  A    between atoms: O_22  and  C_23 
   13  A    between atoms: C_31  and  N_44 

>  <COMPND>
    /home/daniil/Downloads/ml_docking_review/databases/Vina/outputs/7OCB_V88/7OCB_V88.pdbqt 

>  <AUTHOR>
    GENERATED BY OPEN BABEL 3.2.1

>  <MASTER>
        0    0    0    0    0    0    0    0   45    0   45    0

$$$$
