../../databases/Vina/outputs/7BJJ_TVW/7BJJ_TVW1.pdb
 OpenBabel08242616453D

 16 17  0  0  1  0  0  0  0  0999 V2000
    4.8000   -4.3320   18.6920 C   0  0  1  0  0  0  0  0  0  0  0  0
    5.2540   -5.3730   17.9670 N   0  0  0  0  0  0  0  0  0  0  0  0
    6.1960   -5.3450   17.5760 H   0  0  0  0  0  0  0  0  0  0  0  0
    4.6600   -6.1750   17.7610 H   0  0  0  0  0  0  0  0  0  0  0  0
    3.1080   -3.3290   19.9250 C   0  0  0  0  0  0  0  0  0  0  0  0
    3.5680   -4.3690   19.2030 N   0  0  0  0  0  0  0  0  0  0  0  0
    2.9760   -5.1850   19.0490 H   0  0  0  0  0  0  0  0  0  0  0  0
    5.0880   -2.1810   19.7000 C   0  0  1  0  0  0  0  0  0  0  0  0
    3.8330   -2.2330   20.1700 N   0  0  0  0  0  0  0  0  0  0  0  0
    3.4420   -1.4550   20.7020 H   0  0  0  0  0  0  0  0  0  0  0  0
    5.6180   -3.2260   18.9750 C   0  0  0  0  0  0  0  0  0  0  0  0
    7.1620   -1.6460   19.0760 N   0  0  0  0  0  0  0  0  0  0  0  0
    8.0330   -1.1240   18.9820 H   0  0  0  0  0  0  0  0  0  0  0  0
    6.9200   -2.8460   18.5730 C   0  0  0  0  0  0  0  0  0  0  0  0
    6.0330   -1.2230   19.7490 N   0  0  0  0  0  0  0  0  0  0  0  0
    5.9310   -0.3200   20.2130 H   0  0  0  0  0  0  0  0  0  0  0  0
  1  2  1  1  0  0  0
  1 11  1  0  0  0  0
  1  6  1  0  0  0  0
  2  3  1  0  0  0  0
  2  4  1  0  0  0  0
  5  6  1  0  0  0  0
  5  9  1  0  0  0  0
  6  7  1  0  0  0  0
  8 11  1  6  0  0  0
  8 15  1  0  0  0  0
  8  9  1  0  0  0  0
  9 10  1  0  0  0  0
 11 14  2  0  0  0  0
 12 14  1  0  0  0  0
 12 13  1  0  0  0  0
 12 15  1  0  0  0  0
 15 16  1  0  0  0  0
M  END
>  <MODEL>
1

>  <REMARK>
 VINA RESULT:    -4.687      0.000      0.000
 INTER + INTRA:          -4.687
 INTER:                  -4.687
 INTRA:                   0.000
 UNBOUND:                 0.000
  0 active torsions:
  status: ('A' for Active; 'I' for Inactive)

>  <COMPND>
    /home/daniil/Downloads/ml_docking_review/databases/Vina/outputs/7BJJ_TVW/7BJJ_TVW.pdbqt 

>  <AUTHOR>
    GENERATED BY OPEN BABEL 3.2.1

>  <MASTER>
        0    0    0    0    0    0    0    0   16    0   16    0

$$$$
