../../databases/Vina/outputs/7XPO_UPG/7XPO_UPG1.pdb
 OpenBabel08242616453D

 44 46  0  0  1  0  0  0  0  0999 V2000
  -19.1140  -22.4560  -22.6230 P   0  0  2  0  0  0  0  0  0  0  0  0
  -19.5760  -23.4240  -21.5520 O   0  0  0  0  0  0  0  0  0  0  0  0
  -17.7210  -21.9120  -22.4610 O   0  0  0  0  0  0  0  0  0  0  0  0
  -20.1070  -21.2360  -22.6740 O   0  0  0  0  0  0  0  0  0  0  0  0
  -21.4650  -21.3730  -22.3180 C   0  0  0  0  0  0  0  0  0  0  0  0
  -21.6880  -20.5240  -21.0560 C   0  0  1  0  0  0  0  0  0  0  0  0
  -20.7920  -19.5580  -20.9100 O   0  0  0  0  0  0  0  0  0  0  0  0
  -21.3650  -18.1880  -20.8600 C   0  0  2  0  0  0  0  0  0  0  0  0
  -22.7710  -18.5300  -21.4810 C   0  0  1  0  0  0  0  0  0  0  0  0
  -23.1170  -19.7360  -21.1200 C   0  0  2  0  0  0  0  0  0  0  0  0
  -20.5660  -17.3280  -21.5790 N   0  0  0  0  0  0  0  0  0  0  0  0
  -19.7980  -17.7790  -22.6120 C   0  0  0  0  0  0  0  0  0  0  0  0
  -18.9550  -16.9640  -23.3240 C   0  0  0  0  0  0  0  0  0  0  0  0
  -18.8560  -15.6570  -22.8750 C   0  0  0  0  0  0  0  0  0  0  0  0
  -19.6040  -15.2050  -21.8700 N   0  0  0  0  0  0  0  0  0  0  0  0
  -20.4560  -16.0220  -21.2140 C   0  0  0  0  0  0  0  0  0  0  0  0
  -19.5320  -14.2260  -21.5910 H   0  0  0  0  0  0  0  0  0  0  0  0
  -21.1210  -15.5680  -20.2880 O   0  0  0  0  0  0  0  0  0  0  0  0
  -18.0950  -14.7640  -23.4830 O   0  0  0  0  0  0  0  0  0  0  0  0
  -18.1680  -13.8330  -23.3030 H   0  0  0  0  0  0  0  0  0  0  0  0
  -23.6590  -17.4910  -20.8900 O   0  0  0  0  0  0  0  0  0  0  0  0
  -23.1670  -16.7860  -20.4860 H   0  0  0  0  0  0  0  0  0  0  0  0
  -23.6940  -19.9260  -19.7740 O   0  0  0  0  0  0  0  0  0  0  0  0
  -23.4530  -20.8150  -19.5430 H   0  0  0  0  0  0  0  0  0  0  0  0
  -19.3810  -23.2620  -23.9870 O   0  0  0  0  0  0  0  0  0  0  0  0
  -19.8040  -22.7240  -25.4670 P   0  0  2  0  0  0  0  0  0  0  0  0
  -18.9860  -21.5100  -25.7870 O   0  0  0  0  0  0  0  0  0  0  0  0
  -21.1900  -23.0720  -25.6680 O   0  0  0  0  0  0  0  0  0  0  0  0
  -18.8770  -23.8570  -26.2860 O   0  0  0  0  0  0  0  0  0  0  0  0
  -19.4690  -24.7770  -27.1690 C   0  0  2  0  0  0  0  0  0  0  0  0
  -19.6240  -26.1380  -26.5990 C   0  0  1  0  0  0  0  0  0  0  0  0
  -18.3450  -26.5210  -26.0790 C   0  0  2  0  0  0  0  0  0  0  0  0
  -17.4390  -26.8280  -27.2000 C   0  0  1  0  0  0  0  0  0  0  0  0
  -17.2280  -25.5660  -28.0920 C   0  0  2  0  0  0  0  0  0  0  0  0
  -18.5800  -24.8910  -28.3470 O   0  0  0  0  0  0  0  0  0  0  0  0
  -20.6100  -26.2470  -25.5100 O   0  0  0  0  0  0  0  0  0  0  0  0
  -20.7980  -25.4330  -25.0570 H   0  0  0  0  0  0  0  0  0  0  0  0
  -18.4810  -27.6690  -25.1560 O   0  0  0  0  0  0  0  0  0  0  0  0
  -17.8300  -27.6430  -24.4660 H   0  0  0  0  0  0  0  0  0  0  0  0
  -16.2020  -27.2790  -26.6540 O   0  0  0  0  0  0  0  0  0  0  0  0
  -16.3210  -28.1710  -26.3530 H   0  0  0  0  0  0  0  0  0  0  0  0
  -16.6850  -25.9600  -29.3590 C   0  0  0  0  0  0  0  0  0  0  0  0
  -16.9970  -27.3180  -29.5660 O   0  0  0  0  0  0  0  0  0  0  0  0
  -16.3230  -27.8430  -29.1500 H   0  0  0  0  0  0  0  0  0  0  0  0
  1 25  1  0  0  0  0
  1  4  1  0  0  0  0
  1  3  2  1  0  0  0
  1  2  1  0  0  0  0
  4  5  1  0  0  0  0
  6  5  1  6  0  0  0
  6 10  1  0  0  0  0
  6  7  1  0  0  0  0
  7  8  1  0  0  0  0
  8 11  1  6  0  0  0
  8  9  1  0  0  0  0
  9 10  1  0  0  0  0
  9 21  1  1  0  0  0
 10 23  1  1  0  0  0
 11 12  1  0  0  0  0
 11 16  1  0  0  0  0
 12 13  1  0  0  0  0
 13 14  2  0  0  0  0
 14 19  1  0  0  0  0
 14 15  1  0  0  0  0
 15 17  1  0  0  0  0
 15 16  1  0  0  0  0
 16 18  2  0  0  0  0
 19 20  1  0  0  0  0
 21 22  1  0  0  0  0
 23 24  1  0  0  0  0
 25 26  1  0  0  0  0
 26 29  1  0  0  0  0
 26 27  2  6  0  0  0
 26 28  1  0  0  0  0
 30 29  1  1  0  0  0
 30 35  1  0  0  0  0
 30 31  1  0  0  0  0
 31 32  1  0  0  0  0
 31 36  1  1  0  0  0
 32 33  1  0  0  0  0
 32 38  1  1  0  0  0
 33 34  1  0  0  0  0
 33 40  1  1  0  0  0
 34 42  1  6  0  0  0
 34 35  1  0  0  0  0
 36 37  1  0  0  0  0
 38 39  1  0  0  0  0
 40 41  1  0  0  0  0
 42 43  1  0  0  0  0
 43 44  1  0  0  0  0
M  END
>  <MODEL>
1

>  <REMARK>
 VINA RESULT:    -9.720      0.000      0.000
 INTER + INTRA:         -18.909
 INTER:                 -16.824
 INTRA:                  -2.086
 UNBOUND:                -2.086
  16 active torsions:
  status: ('A' for Active; 'I' for Inactive)
    1  A    between atoms: N_1  and  C_11 
    2  A    between atoms: C_5  and  O_9 
    3  A    between atoms: C_12  and  O_13 
    4  A    between atoms: C_15  and  O_18 
    5  A    between atoms: C_16  and  C_20 
    6  A    between atoms: C_20  and  O_21 
    7  A    between atoms: O_21  and  P_22 
    8  A    between atoms: P_22  and  O_25 
    9  A    between atoms: O_25  and  P_26 
   10  A    between atoms: P_26  and  O_29 
   11  A    between atoms: O_29  and  C_30 
   12  A    between atoms: C_31  and  O_36 
   13  A    between atoms: C_32  and  O_38 
   14  A    between atoms: C_33  and  O_40 
   15  A    between atoms: C_34  and  C_35 
   16  A    between atoms: C_35  and  O_43 

>  <COMPND>
    /home/daniil/Downloads/ml_docking_review/databases/Vina/outputs/7XPO_UPG/7XPO_UPG.pdbqt 

>  <AUTHOR>
    GENERATED BY OPEN BABEL 3.2.1

>  <MASTER>
        0    0    0    0    0    0    0    0   44    0   44    0

$$$$
