../../databases/Vina/outputs/7D8Q_GZF/7D8Q_GZF1.pdb
 OpenBabel08242616453D

 33 35  0  0  1  0  0  0  0  0999 V2000
  -34.2450   -2.0340   20.7830 C   0  0  1  0  0  0  0  0  0  0  0  0
  -32.9820   -1.9230   21.4160 C   0  0  2  0  0  0  0  0  0  0  0  0
  -31.9750   -1.7730   20.1830 O   0  0  0  0  0  0  0  0  0  0  0  0
  -32.4540   -2.7280   19.3810 C   0  0  1  0  0  0  0  0  0  0  0  0
  -34.0210   -2.6120   19.3480 C   0  0  1  0  0  0  0  0  0  0  0  0
  -31.5300   -2.9750   18.2470 N   0  0  0  0  0  0  0  0  0  0  0  0
  -31.5870   -3.1730   16.8810 C   0  0  0  0  0  0  0  0  0  0  0  0
  -32.5620   -3.1110   15.9040 N   0  0  0  0  0  0  0  0  0  0  0  0
  -30.2640   -3.4520   16.5080 C   0  0  0  0  0  0  0  0  0  0  0  0
  -32.1910   -3.3250   14.6320 C   0  0  2  0  0  0  0  0  0  0  0  0
  -33.5320   -2.9100   16.1410 H   0  0  0  0  0  0  0  0  0  0  0  0
  -30.9100   -3.5960   14.2740 N   0  0  0  0  0  0  0  0  0  0  0  0
  -33.1940   -3.2640   13.5890 N   0  0  0  0  0  0  0  0  0  0  0  0
  -29.9120   -3.6720   15.1550 C   0  0  0  0  0  0  0  0  0  0  0  0
  -30.7010   -3.7500   13.2880 H   0  0  0  0  0  0  0  0  0  0  0  0
  -28.7680   -3.9190   14.8420 O   0  0  0  0  0  0  0  0  0  0  0  0
  -29.4670   -3.4510   17.6210 N   0  0  0  0  0  0  0  0  0  0  0  0
  -30.2490   -3.1870   18.6370 C   0  0  0  0  0  0  0  0  0  0  0  0
  -28.4610   -3.6220   17.6520 H   0  0  0  0  0  0  0  0  0  0  0  0
  -34.4810   -3.9290   19.0970 O   0  0  0  0  0  0  0  0  0  0  0  0
  -33.8960   -4.5130   18.6300 H   0  0  0  0  0  0  0  0  0  0  0  0
  -35.2880   -2.6450   21.5540 O   0  0  0  0  0  0  0  0  0  0  0  0
  -35.7120   -3.3970   21.1610 H   0  0  0  0  0  0  0  0  0  0  0  0
  -32.2270   -3.0500   22.2280 C   0  0  0  0  0  0  0  0  0  0  0  0
  -33.0610   -3.9370   22.9830 O   0  0  0  0  0  0  0  0  0  0  0  0
  -32.9640   -5.4070   22.4060 P   0  0  2  0  0  0  0  0  0  0  0  0
  -32.8660   -6.4190   23.5000 O   0  0  0  0  0  0  0  0  0  0  0  0
  -31.8230   -5.5930   21.3930 O   0  0  0  0  0  0  0  0  0  0  0  0
  -34.3640   -5.5280   21.5920 O   0  0  0  0  0  0  0  0  0  0  0  0
  -35.8350   -6.0910   21.8820 P   0  0  1  0  0  0  0  0  0  0  0  0
  -36.4030   -5.3900   23.6570 S   0  0  0  0  0  0  0  0  0  0  0  0
  -36.5930   -5.3500   20.7090 O   0  0  0  0  0  0  0  0  0  0  0  0
  -35.8320   -7.6540   21.8760 O   0  0  0  0  0  0  0  0  0  0  0  0
  1  5  1  0  0  0  0
  1  2  1  0  0  0  0
  1 22  1  1  0  0  0
  2  3  1  0  0  0  0
  2 24  1  6  0  0  0
  3  4  1  0  0  0  0
  4  6  1  6  0  0  0
  4  5  1  0  0  0  0
  5 20  1  1  0  0  0
  6  7  1  0  0  0  0
  6 18  1  0  0  0  0
  7  8  1  0  0  0  0
  7  9  2  0  0  0  0
  8 10  1  0  0  0  0
  8 11  1  0  0  0  0
  9 14  1  0  0  0  0
  9 17  1  0  0  0  0
 10 13  1  6  0  0  0
 10 12  1  0  0  0  0
 12 15  1  0  0  0  0
 12 14  1  0  0  0  0
 14 16  2  0  0  0  0
 17 19  1  0  0  0  0
 17 18  1  0  0  0  0
 20 21  1  0  0  0  0
 22 23  1  0  0  0  0
 24 25  1  0  0  0  0
 25 26  1  0  0  0  0
 26 28  2  6  0  0  0
 26 29  1  0  0  0  0
 26 27  1  0  0  0  0
 29 30  1  0  0  0  0
 30 32  2  6  0  0  0
 30 33  1  0  0  0  0
 30 31  1  0  0  0  0
M  END
>  <MODEL>
1

>  <REMARK>
 VINA RESULT:    -6.474      0.000      0.000
 INTER + INTRA:         -11.558
 INTER:                  -9.124
 INTRA:                  -2.434
 UNBOUND:                -2.434
  8 active torsions:
  status: ('A' for Active; 'I' for Inactive)
    1  A    between atoms: O_1  and  C_3 
    2  A    between atoms: C_4  and  C_5 
    3  A    between atoms: C_5  and  O_6 
    4  A    between atoms: O_6  and  P_7 
    5  A    between atoms: P_7  and  O_10 
    6  A    between atoms: O_10  and  P_11 
    7  A    between atoms: C_16  and  N_17 
    8  A    between atoms: C_31  and  O_32 

>  <COMPND>
    /home/daniil/Downloads/ml_docking_review/databases/Vina/outputs/7D8Q_GZF/7D8Q_GZF.pdbqt 

>  <AUTHOR>
    GENERATED BY OPEN BABEL 3.2.1

>  <MASTER>
        0    0    0    0    0    0    0    0   33    0   33    0

$$$$
