../../databases/Vina/outputs/7FB7_8NF/7FB7_8NF1.pdb
 OpenBabel08242616453D

 10 10  0  0  1  0  0  0  0  0999 V2000
   12.9770   19.9200   41.0880 C   0  0  0  0  0  0  0  0  0  0  0  0
   14.0790   20.9710   41.2190 C   0  0  0  0  0  0  0  0  0  0  0  0
   15.2950   20.6070   41.7470 C   0  0  0  0  0  0  0  0  0  0  0  0
   16.2760   21.6040   41.8360 C   0  0  1  0  0  0  0  0  0  0  0  0
   14.8390   23.1950   40.8680 C   0  0  0  0  0  0  0  0  0  0  0  0
   13.8490   22.2280   40.7760 C   0  0  0  0  0  0  0  0  0  0  0  0
   17.6760   21.3290   42.3910 C   0  0  0  0  0  0  0  0  0  0  0  0
   16.0250   22.8250   41.4020 N   0  0  0  0  0  0  0  0  0  0  0  0
   16.7640   23.5250   41.4730 H   0  0  0  0  0  0  0  0  0  0  0  0
   12.5950   22.6730   40.1960 N   0  0  0  0  0  0  0  0  0  0  0  0
  1  2  1  0  0  0  0
  2  6  1  0  0  0  0
  2  3  2  0  0  0  0
  3  4  1  0  0  0  0
  4  8  1  0  0  0  0
  4  7  1  6  0  0  0
  5  6  2  0  0  0  0
  5  8  1  0  0  0  0
  6 10  1  0  0  0  0
  8  9  1  0  0  0  0
M  END
>  <MODEL>
1

>  <REMARK>
 VINA RESULT:    -5.286      0.000      0.000
 INTER + INTRA:          -5.286
 INTER:                  -5.286
 INTRA:                   0.000
 UNBOUND:                 0.000
  0 active torsions:
  status: ('A' for Active; 'I' for Inactive)

>  <COMPND>
    /home/daniil/Downloads/ml_docking_review/databases/Vina/outputs/7FB7_8NF/7FB7_8NF.pdbqt 

>  <AUTHOR>
    GENERATED BY OPEN BABEL 3.2.1

>  <MASTER>
        0    0    0    0    0    0    0    0   10    0   10    0

$$$$
