../../databases/Vina/outputs/7FT9_4MB/7FT9_4MB1.pdb
 OpenBabel08242616453D

 15 15  0  0  0  0  0  0  0  0999 V2000
   -0.1200    6.3530  -30.3330 C   0  0  0  0  0  0  0  0  0  0  0  0
    0.7480    4.2220  -31.0960 C   0  0  0  0  0  0  0  0  0  0  0  0
    1.0080    6.9980  -30.8590 C   0  0  0  0  0  0  0  0  0  0  0  0
   -0.2480    4.9770  -30.4490 C   0  0  0  0  0  0  0  0  0  0  0  0
    1.8420    4.8800  -31.6240 C   0  0  0  0  0  0  0  0  0  0  0  0
    1.9770    6.2490  -31.5030 C   0  0  0  0  0  0  0  0  0  0  0  0
    1.2310    8.4180  -30.8160 N   0  0  0  0  0  0  0  0  0  0  0  0
    1.9260    8.7590  -30.1510 H   0  0  0  0  0  0  0  0  0  0  0  0
    0.4780    9.5280  -31.7310 S   0  0  0  0  0  0  0  0  0  0  0  0
   -0.3600   10.3210  -30.8880 O   0  0  0  0  0  0  0  0  0  0  0  0
   -0.1170    8.7850  -32.7990 O   0  0  0  0  0  0  0  0  0  0  0  0
    1.7260   10.5640  -32.3980 C   0  0  0  0  0  0  0  0  0  0  0  0
    0.7010    2.7430  -31.2080 C   0  0  0  0  0  0  0  0  0  0  0  0
   -0.3270    2.1190  -30.9060 O   0  0  0  0  0  0  0  0  0  0  0  0
    1.7880    2.1680  -31.6450 O   0  0  0  0  0  0  0  0  0  0  0  0
  1  3  2  0  0  0  0
  1  4  1  0  0  0  0
  2  5  1  0  0  0  0
  2 13  1  0  0  0  0
  2  4  2  0  0  0  0
  3  6  1  0  0  0  0
  3  7  1  0  0  0  0
  5  6  2  0  0  0  0
  7  9  1  0  0  0  0
  7  8  1  0  0  0  0
  9 11  2  0  0  0  0
  9 12  1  0  0  0  0
  9 10  2  0  0  0  0
 13 15  2  0  0  0  0
 13 14  1  0  0  0  0
M  END
>  <MODEL>
1

>  <REMARK>
 VINA RESULT:    -5.666      0.000      0.000
 INTER + INTRA:          -6.865
 INTER:                  -6.660
 INTRA:                  -0.205
 UNBOUND:                -0.205
  3 active torsions:
  status: ('A' for Active; 'I' for Inactive)
    1  A    between atoms: C_2  and  C_7 
    2  A    between atoms: N_3  and  C_5 
    3  A    between atoms: N_3  and  S_13 

>  <COMPND>
    /home/daniil/Downloads/ml_docking_review/databases/Vina/outputs/7FT9_4MB/7FT9_4MB.pdbqt 

>  <AUTHOR>
    GENERATED BY OPEN BABEL 3.2.1

>  <MASTER>
        0    0    0    0    0    0    0    0   15    0   15    0

$$$$
