../../databases/Vina/outputs/7ES1_UDP/7ES1_UDP1.pdb
 OpenBabel08242616453D

 28 29  0  0  1  0  0  0  0  0999 V2000
   12.6040    9.1170   18.2680 C   0  0  1  0  0  0  0  0  0  0  0  0
   11.3190    8.3920   17.9280 C   0  0  1  0  0  0  0  0  0  0  0  0
   10.6880    8.2000   19.3010 C   0  0  1  0  0  0  0  0  0  0  0  0
   11.8680    8.0880   20.2380 C   0  0  2  0  0  0  0  0  0  0  0  0
   12.9870    8.6570   19.5640 O   0  0  0  0  0  0  0  0  0  0  0  0
   12.1960    6.6410   20.5780 C   0  0  0  0  0  0  0  0  0  0  0  0
   11.2730    6.2210   21.5670 O   0  0  0  0  0  0  0  0  0  0  0  0
   11.0660    4.6800   21.9430 P   0  0  2  0  0  0  0  0  0  0  0  0
   10.3550    4.0470   20.7600 O   0  0  0  0  0  0  0  0  0  0  0  0
   10.3760    4.6390   23.2740 O   0  0  0  0  0  0  0  0  0  0  0  0
   12.5270    4.0080   21.9930 O   0  0  0  0  0  0  0  0  0  0  0  0
   13.6750    3.9780   23.1590 P   0  0  0  0  0  0  0  0  0  0  0  0
   13.1770    3.0600   24.2300 O   0  0  0  0  0  0  0  0  0  0  0  0
   13.7640    5.4220   23.5190 O   0  0  0  0  0  0  0  0  0  0  0  0
   14.9600    3.5030   22.4780 O   0  0  0  0  0  0  0  0  0  0  0  0
    9.8590    9.3070   19.7000 O   0  0  0  0  0  0  0  0  0  0  0  0
    9.1230    8.9860   20.2080 H   0  0  0  0  0  0  0  0  0  0  0  0
   10.5180    9.1730   17.0490 O   0  0  0  0  0  0  0  0  0  0  0  0
    9.7690    9.5690   17.4800 H   0  0  0  0  0  0  0  0  0  0  0  0
   13.7360    8.8570   17.3900 N   0  0  0  0  0  0  0  0  0  0  0  0
   13.9410    9.6920   16.2760 C   0  0  0  0  0  0  0  0  0  0  0  0
   14.9880    9.4780   15.4740 N   0  0  0  0  0  0  0  0  0  0  0  0
   13.1300   10.6080   16.0200 O   0  0  0  0  0  0  0  0  0  0  0  0
   15.8760    8.5100   15.7120 C   0  0  0  0  0  0  0  0  0  0  0  0
   15.1120   10.0730   14.6540 H   0  0  0  0  0  0  0  0  0  0  0  0
   16.8680    8.3630   14.9540 O   0  0  0  0  0  0  0  0  0  0  0  0
   15.7090    7.6770   16.8170 C   0  0  0  0  0  0  0  0  0  0  0  0
   14.6090    7.8710   17.6470 C   0  0  0  0  0  0  0  0  0  0  0  0
  1 20  1  6  0  0  0
  1  2  1  0  0  0  0
  1  5  1  0  0  0  0
  2 18  1  6  0  0  0
  2  3  1  0  0  0  0
  3 16  1  1  0  0  0
  3  4  1  0  0  0  0
  4  5  1  0  0  0  0
  4  6  1  6  0  0  0
  6  7  1  0  0  0  0
  7  8  1  0  0  0  0
  8  9  2  6  0  0  0
  8 11  1  0  0  0  0
  8 10  1  0  0  0  0
 11 12  1  0  0  0  0
 12 15  2  0  0  0  0
 12 14  1  0  0  0  0
 12 13  1  0  0  0  0
 16 17  1  0  0  0  0
 18 19  1  0  0  0  0
 20 21  1  0  0  0  0
 20 28  1  0  0  0  0
 21 22  1  0  0  0  0
 21 23  2  0  0  0  0
 22 25  1  0  0  0  0
 22 24  1  0  0  0  0
 24 26  2  0  0  0  0
 24 27  1  0  0  0  0
 27 28  2  0  0  0  0
M  END
>  <MODEL>
1

>  <REMARK>
 VINA RESULT:   -10.279      0.000      0.000
 INTER + INTRA:         -15.509
 INTER:                 -14.485
 INTRA:                  -1.024
 UNBOUND:                -1.024
  8 active torsions:
  status: ('A' for Active; 'I' for Inactive)
    1  A    between atoms: N_1  and  C_10 
    2  A    between atoms: C_11  and  O_12 
    3  A    between atoms: C_14  and  O_17 
    4  A    between atoms: C_15  and  C_19 
    5  A    between atoms: C_19  and  O_20 
    6  A    between atoms: O_20  and  P_21 
    7  A    between atoms: P_21  and  O_24 
    8  A    between atoms: O_24  and  P_25 

>  <COMPND>
    /home/daniil/Downloads/ml_docking_review/databases/Vina/outputs/7ES1_UDP/7ES1_UDP.pdbqt 

>  <AUTHOR>
    GENERATED BY OPEN BABEL 3.2.1

>  <MASTER>
        0    0    0    0    0    0    0    0   28    0   28    0

$$$$
