../../databases/Vina/outputs/7WKL_CAQ/7WKL_CAQ1.pdb
 OpenBabel08242616453D

 10 10  0  0  0  0  0  0  0  0999 V2000
   15.5830   30.6680   75.0480 C   0  0  0  0  0  0  0  0  0  0  0  0
   16.8900   31.0380   75.3040 C   0  0  0  0  0  0  0  0  0  0  0  0
   17.2280   32.3840   75.3580 C   0  0  0  0  0  0  0  0  0  0  0  0
   16.2780   33.3630   75.1580 C   0  0  0  0  0  0  0  0  0  0  0  0
   14.9640   32.9970   74.8960 C   0  0  0  0  0  0  0  0  0  0  0  0
   14.6210   31.6530   74.8420 C   0  0  0  0  0  0  0  0  0  0  0  0
   18.5390   32.7760   75.6030 O   0  0  0  0  0  0  0  0  0  0  0  0
   18.7290   33.4760   76.2170 H   0  0  0  0  0  0  0  0  0  0  0  0
   16.6670   34.7090   75.2120 O   0  0  0  0  0  0  0  0  0  0  0  0
   17.5690   34.9200   75.4190 H   0  0  0  0  0  0  0  0  0  0  0  0
  1  6  2  0  0  0  0
  1  2  1  0  0  0  0
  2  3  2  0  0  0  0
  3  4  1  0  0  0  0
  3  7  1  0  0  0  0
  4  5  2  0  0  0  0
  4  9  1  0  0  0  0
  5  6  1  0  0  0  0
  7  8  1  0  0  0  0
  9 10  1  0  0  0  0
M  END
>  <MODEL>
1

>  <REMARK>
 VINA RESULT:    -7.097      0.000      0.000
 INTER + INTRA:          -7.512
 INTER:                  -7.512
 INTRA:                   0.000
 UNBOUND:                 0.000
  2 active torsions:
  status: ('A' for Active; 'I' for Inactive)
    1  A    between atoms: C_3  and  O_4 
    2  A    between atoms: C_6  and  O_7 

>  <COMPND>
    /home/daniil/Downloads/ml_docking_review/databases/Vina/outputs/7WKL_CAQ/7WKL_CAQ.pdbqt 

>  <AUTHOR>
    GENERATED BY OPEN BABEL 3.2.1

>  <MASTER>
        0    0    0    0    0    0    0    0   10    0   10    0

$$$$
