../../databases/Vina/outputs/7LB3_XXS/7LB3_XXS1.pdb
 OpenBabel08242616453D

 35 39  0  0  1  0  0  0  0  0999 V2000
   19.7100   18.4300   65.5590 C   0  0  2  0  0  0  0  0  0  0  0  0
   21.3100   16.8020   65.4220 C   0  0  1  0  0  0  0  0  0  0  0  0
   22.2780   17.6460   65.9950 C   0  0  0  0  0  0  0  0  0  0  0  0
   21.8250   18.9190   66.3250 C   0  0  0  0  0  0  0  0  0  0  0  0
   20.5680   19.2910   66.0900 N   0  0  0  0  0  0  0  0  0  0  0  0
   20.2650   20.2380   66.3190 H   0  0  0  0  0  0  0  0  0  0  0  0
   20.0670   17.2140   65.1800 N   0  0  0  0  0  0  0  0  0  0  0  0
   19.4000   16.6010   64.7100 H   0  0  0  0  0  0  0  0  0  0  0  0
   18.2870   18.9080   65.2290 C   0  0  0  0  0  0  0  0  0  0  0  0
   17.3580   17.9160   64.8770 C   0  0  0  0  0  0  0  0  0  0  0  0
   16.0580   18.3110   64.5200 C   0  0  0  0  0  0  0  0  0  0  0  0
   15.7160   19.6650   64.5030 C   0  0  0  0  0  0  0  0  0  0  0  0
   16.6610   20.6650   64.8560 C   0  0  2  0  0  0  0  0  0  0  0  0
   16.5910   22.0190   64.9280 N   0  0  0  0  0  0  0  0  0  0  0  0
   17.9440   20.2940   65.2090 C   0  0  0  0  0  0  0  0  0  0  0  0
   17.7940   22.5260   65.3100 N   0  0  0  0  0  0  0  0  0  0  0  0
   15.7600   22.5740   64.7260 H   0  0  0  0  0  0  0  0  0  0  0  0
   18.6410   21.5160   65.4870 C   0  0  0  0  0  0  0  0  0  0  0  0
   18.0100   23.5150   65.4380 H   0  0  0  0  0  0  0  0  0  0  0  0
   21.7880   15.3950   65.0360 C   0  0  0  0  0  0  0  0  0  0  0  0
   23.2360   15.0890   65.4000 C   0  0  0  0  0  0  0  0  0  0  0  0
   22.7370   14.8430   63.9770 C   0  0  0  0  0  0  0  0  0  0  0  0
   20.4530   14.1680   65.4430 S   0  0  2  0  0  0  0  0  0  0  0  0
   19.3740   14.6840   66.2800 O   0  0  0  0  0  0  0  0  0  0  0  0
   21.6680   13.0070   66.1250 C   0  0  0  0  0  0  0  0  0  0  0  0
   20.0270   13.4750   64.1330 N   0  0  0  0  0  0  0  0  0  0  0  0
   20.7200   13.0660   63.5060 H   0  0  0  0  0  0  0  0  0  0  0  0
   19.0260   13.4550   63.9380 H   0  0  0  0  0  0  0  0  0  0  0  0
   22.7440   19.8620   66.9540 N   0  0  0  0  0  0  0  0  0  0  0  0
   24.0470   19.3570   67.4570 C   0  0  0  0  0  0  0  0  0  0  0  0
   24.7130   20.3850   68.3870 C   0  0  0  0  0  0  0  0  0  0  0  0
   24.7970   21.6040   67.7190 O   0  0  0  0  0  0  0  0  0  0  0  0
   23.5460   22.1500   67.4080 C   0  0  0  0  0  0  0  0  0  0  0  0
   22.7960   21.2360   66.4380 C   0  0  1  0  0  0  0  0  0  0  0  0
   23.5440   21.1880   65.0950 C   0  0  0  0  0  0  0  0  0  0  0  0
  1  7  1  0  0  0  0
  1  9  1  6  0  0  0
  1  5  1  0  0  0  0
  2 20  1  6  0  0  0
  2  7  1  0  0  0  0
  2  3  1  0  0  0  0
  3  4  2  0  0  0  0
  4  5  1  0  0  0  0
  4 29  1  0  0  0  0
  5  6  1  0  0  0  0
  7  8  1  0  0  0  0
  9 10  2  0  0  0  0
  9 15  1  0  0  0  0
 10 11  1  0  0  0  0
 11 12  2  0  0  0  0
 13 12  1  6  0  0  0
 13 14  1  0  0  0  0
 13 15  1  0  0  0  0
 14 17  1  0  0  0  0
 14 16  1  0  0  0  0
 15 18  2  0  0  0  0
 16 19  1  0  0  0  0
 16 18  1  0  0  0  0
 20 22  1  0  0  0  0
 20 21  1  0  0  0  0
 20 23  1  0  0  0  0
 21 22  1  0  0  0  0
 23 26  1  0  0  0  0
 23 25  1  1  0  0  0
 23 24  1  0  0  0  0
 26 27  1  0  0  0  0
 26 28  1  0  0  0  0
 29 34  1  0  0  0  0
 29 30  1  0  0  0  0
 30 31  1  0  0  0  0
 31 32  1  0  0  0  0
 32 33  1  0  0  0  0
 33 34  1  0  0  0  0
 34 35  1  6  0  0  0
M  END
>  <MODEL>
1

>  <REMARK>
 VINA RESULT:    -8.504      0.000      0.000
 INTER + INTRA:         -11.670
 INTER:                 -10.742
 INTRA:                  -0.929
 UNBOUND:                -0.929
  5 active torsions:
  status: ('A' for Active; 'I' for Inactive)
    1  A    between atoms: C_4  and  C_18 
    2  A    between atoms: C_10  and  S_35 
    3  A    between atoms: C_10  and  C_13 
    4  A    between atoms: C_15  and  N_24 
    5  A    between atoms: N_21  and  S_35 

>  <COMPND>
    /home/daniil/Downloads/ml_docking_review/databases/Vina/outputs/7LB3_XXS/7LB3_XXS.pdbqt 

>  <AUTHOR>
    GENERATED BY OPEN BABEL 3.2.1

>  <MASTER>
        0    0    0    0    0    0    0    0   35    0   35    0

$$$$
