../../databases/Vina/outputs/8FLV_ZB9/8FLV_ZB91.pdb
 OpenBabel08242616453D

 33 36  0  0  1  0  0  0  0  0999 V2000
  -13.4080    7.7280  -17.3890 C   0  0  1  0  0  0  0  0  0  0  0  0
  -12.6680   10.0150  -16.6440 C   0  0  0  0  0  0  0  0  0  0  0  0
  -12.9970    7.8940  -14.0180 C   0  0  0  0  0  0  0  0  0  0  0  0
  -11.7900    9.3430  -15.6080 C   0  0  0  0  0  0  0  0  0  0  0  0
  -12.5130    7.1220  -16.3020 C   0  0  0  0  0  0  0  0  0  0  0  0
  -12.8760    9.0850  -17.8390 C   0  0  0  0  0  0  0  0  0  0  0  0
  -12.4190    8.0830  -15.2070 N   0  0  0  0  0  0  0  0  0  0  0  0
  -13.7170    6.9190  -13.7990 O   0  0  0  0  0  0  0  0  0  0  0  0
  -13.5860    6.7880  -18.5030 N   0  0  0  0  0  0  0  0  0  0  0  0
  -12.4790    6.6850  -19.4390 C   0  0  0  0  0  0  0  0  0  0  0  0
  -14.7360    6.1060  -18.7130 C   0  0  1  0  0  0  0  0  0  0  0  0
  -14.9340    5.6430  -19.9700 N   0  0  0  0  0  0  0  0  0  0  0  0
  -15.7260    5.8310  -17.7290 C   0  0  0  0  0  0  0  0  0  0  0  0
  -16.0530    4.9550  -20.2310 C   0  0  0  0  0  0  0  0  0  0  0  0
  -14.2450    5.8150  -20.7020 H   0  0  0  0  0  0  0  0  0  0  0  0
  -17.0530    4.6570  -19.4100 N   0  0  0  0  0  0  0  0  0  0  0  0
  -16.8620    5.1080  -18.1590 C   0  0  0  0  0  0  0  0  0  0  0  0
  -17.8820    4.1380  -19.7000 H   0  0  0  0  0  0  0  0  0  0  0  0
  -17.7030    4.9450  -17.0930 N   0  0  0  0  0  0  0  0  0  0  0  0
  -17.1280    5.5470  -15.9960 C   0  0  0  0  0  0  0  0  0  0  0  0
  -18.6010    4.4600  -17.1080 H   0  0  0  0  0  0  0  0  0  0  0  0
  -15.9270    6.0910  -16.3360 C   0  0  0  0  0  0  0  0  0  0  0  0
  -12.8030    8.9560  -12.9520 C   0  0  0  0  0  0  0  0  0  0  0  0
  -13.5470    8.6320  -11.7520 N   0  0  0  0  0  0  0  0  0  0  0  0
  -13.1470    7.7160  -10.8270 C   0  0  0  0  0  0  0  0  0  0  0  0
  -13.8530    7.5940   -9.6380 C   0  0  0  0  0  0  0  0  0  0  0  0
  -12.0240    6.9280  -11.0570 C   0  0  0  0  0  0  0  0  0  0  0  0
  -13.4310    6.6640   -8.7080 C   0  0  0  0  0  0  0  0  0  0  0  0
  -14.3200    6.5030   -7.2280 Cl  0  0  0  0  0  0  0  0  0  0  0  0
  -12.3250    5.8640   -8.9010 C   0  0  0  0  0  0  0  0  0  0  0  0
  -11.6440    6.0170  -10.0910 C   0  0  0  0  0  0  0  0  0  0  0  0
  -10.2560    5.0130  -10.3730 Cl  0  0  0  0  0  0  0  0  0  0  0  0
  -14.4270    9.1210  -11.5900 H   0  0  0  0  0  0  0  0  0  0  0  0
  1  9  1  6  0  0  0
  1  6  1  0  0  0  0
  1  5  1  0  0  0  0
  2  6  1  0  0  0  0
  2  4  1  0  0  0  0
  3  7  1  0  0  0  0
  3  8  2  0  0  0  0
  3 23  1  0  0  0  0
  4  7  1  0  0  0  0
  5  7  1  0  0  0  0
  9 10  1  0  0  0  0
 11  9  1  1  0  0  0
 11 12  1  0  0  0  0
 11 13  1  0  0  0  0
 12 15  1  0  0  0  0
 12 14  1  0  0  0  0
 13 17  2  0  0  0  0
 13 22  1  0  0  0  0
 14 16  1  0  0  0  0
 16 18  1  0  0  0  0
 16 17  1  0  0  0  0
 17 19  1  0  0  0  0
 19 21  1  0  0  0  0
 19 20  1  0  0  0  0
 20 22  2  0  0  0  0
 23 24  1  0  0  0  0
 24 33  1  0  0  0  0
 24 25  1  0  0  0  0
 25 27  2  0  0  0  0
 25 26  1  0  0  0  0
 26 28  2  0  0  0  0
 27 31  1  0  0  0  0
 28 30  1  0  0  0  0
 28 29  1  0  0  0  0
 30 31  2  0  0  0  0
 31 32  1  0  0  0  0
M  END
>  <MODEL>
1

>  <REMARK>
 VINA RESULT:   -10.269      0.000      0.000
 INTER + INTRA:         -12.305
 INTER:                 -12.070
 INTRA:                  -0.235
 UNBOUND:                -0.235
  3 active torsions:
  status: ('A' for Active; 'I' for Inactive)
    1  A    between atoms: C_9  and  N_27 
    2  A    between atoms: C_11  and  C_18 
       I    between atoms: C_11  and  N_28 
    3  A    between atoms: C_18  and  N_29 

>  <COMPND>
    /home/daniil/Downloads/ml_docking_review/databases/Vina/outputs/8FLV_ZB9/8FLV_ZB9.pdbqt 

>  <AUTHOR>
    GENERATED BY OPEN BABEL 3.2.1

>  <MASTER>
        0    0    0    0    0    0    0    0   33    0   33    0

$$$$
