../../databases/Vina/outputs/7TWC_CXS/7TWC_CXS1.pdb
 OpenBabel08242612033D

 16 16  0  0  0  0  0  0  0  0999 V2000
    6.5280    7.2890   18.2490 N   0  0  0  0  0  4  0  0  0  0  0  0
    7.0360    8.0860   18.6330 H   0  0  0  0  0  0  0  0  0  0  0  0
    7.2430    6.9200   17.6210 H   0  0  0  0  0  0  0  0  0  0  0  0
    5.3480    7.7390   17.4890 C   0  0  0  0  0  0  0  0  0  0  0  0
    5.5330    9.1840   17.0240 C   0  0  0  0  0  0  0  0  0  0  0  0
    5.6530    9.3030   15.5010 C   0  0  0  0  0  0  0  0  0  0  0  0
    7.2560    9.5480   15.0790 S   0  0  0  0  0  0  0  0  0  0  0  0
    7.6870    8.4060   14.2900 O   0  0  0  0  0  0  0  0  0  0  0  0
    7.3880   10.8030   14.4100 O   0  0  0  0  0  0  0  0  0  0  0  0
    8.0990    9.5670   16.4590 O   0  0  0  0  0  0  0  0  0  0  0  0
    6.2070    6.3070   19.3150 C   0  0  0  0  0  0  0  0  0  0  0  0
    5.3900    5.1680   18.7320 C   0  0  0  0  0  0  0  0  0  0  0  0
    5.6020    3.8270   19.4470 C   0  0  0  0  0  0  0  0  0  0  0  0
    5.9370    3.9930   20.9230 C   0  0  0  0  0  0  0  0  0  0  0  0
    7.2490    4.7320   21.0640 C   0  0  0  0  0  0  0  0  0  0  0  0
    7.4700    5.7720   19.9660 C   0  0  0  0  0  0  0  0  0  0  0  0
  1  4  1  0  0  0  0
  1  3  1  0  0  0  0
  1  2  1  0  0  0  0
  1 11  1  0  0  0  0
  4  5  1  0  0  0  0
  5  6  1  0  0  0  0
  6  7  1  0  0  0  0
  7  8  1  0  0  0  0
  7  9  1  0  0  0  0
  7 10  1  0  0  0  0
 11 12  1  0  0  0  0
 11 16  1  0  0  0  0
 12 13  1  0  0  0  0
 13 14  1  0  0  0  0
 14 15  1  0  0  0  0
 15 16  1  0  0  0  0
M  END
>  <MODEL>
1

>  <REMARK>
 VINA RESULT:    -6.425      0.000      0.000
 INTER + INTRA:          -8.744
 INTER:                  -8.303
 INTRA:                  -0.441
 UNBOUND:                -0.441
  5 active torsions:
  status: ('A' for Active; 'I' for Inactive)
    1  A    between atoms: S_1  and  C_5 
    2  A    between atoms: C_5  and  C_6 
    3  A    between atoms: C_6  and  C_7 
    4  A    between atoms: C_7  and  N_8 
    5  A    between atoms: N_8  and  C_11 

>  <COMPND>
    /home/daniil/Downloads/ml_docking_review/databases/Vina/outputs/7TWC_CXS/7TWC_CXS.pdbqt 

>  <AUTHOR>
    GENERATED BY OPEN BABEL 3.2.1

>  <MASTER>
        0    0    0    0    0    0    0    0   16    0   16    0

$$$$
