../../databases/Vina/outputs/7OSO_0V1/7OSO_0V11.pdb
 OpenBabel08242616453D

 10  9  0  0  1  0  0  0  0  0999 V2000
   35.9350   -1.3660   14.7990 C   0  0  2  0  0  0  0  0  0  0  0  0
   36.9160   -1.2920   15.9840 C   0  0  0  0  0  0  0  0  0  0  0  0
   37.0450    0.0250   16.5450 O   0  0  0  0  0  0  0  0  0  0  0  0
   36.3560    0.2460   17.1610 H   0  0  0  0  0  0  0  0  0  0  0  0
   36.6130   -0.7330   13.5930 C   0  0  0  0  0  0  0  0  0  0  0  0
   35.9160    0.5450   13.1270 C   0  0  0  0  0  0  0  0  0  0  0  0
   36.0510    1.5850   14.0910 O   0  0  0  0  0  0  0  0  0  0  0  0
   36.9420    1.6390   14.4140 H   0  0  0  0  0  0  0  0  0  0  0  0
   34.7260   -0.6500   15.1250 O   0  0  0  0  0  0  0  0  0  0  0  0
   34.2490   -1.1200   15.7990 H   0  0  0  0  0  0  0  0  0  0  0  0
  1  5  1  6  0  0  0
  1  9  1  0  0  0  0
  1  2  1  0  0  0  0
  2  3  1  0  0  0  0
  3  4  1  0  0  0  0
  5  6  1  0  0  0  0
  6  7  1  0  0  0  0
  7  8  1  0  0  0  0
  9 10  1  0  0  0  0
M  END
>  <MODEL>
1

>  <REMARK>
 VINA RESULT:    -3.953      0.000      0.000
 INTER + INTRA:          -5.480
 INTER:                  -4.993
 INTRA:                  -0.487
 UNBOUND:                -0.487
  6 active torsions:
  status: ('A' for Active; 'I' for Inactive)
    1  A    between atoms: C_1  and  C_2 
    2  A    between atoms: C_1  and  O_9 
    3  A    between atoms: C_2  and  C_3 
    4  A    between atoms: C_2  and  O_7 
    5  A    between atoms: C_3  and  C_4 
    6  A    between atoms: C_4  and  O_5 

>  <COMPND>
    /home/daniil/Downloads/ml_docking_review/databases/Vina/outputs/7OSO_0V1/7OSO_0V1.pdbqt 

>  <AUTHOR>
    GENERATED BY OPEN BABEL 3.2.1

>  <MASTER>
        0    0    0    0    0    0    0    0   10    0   10    0

$$$$
