../../databases/Vina/outputs/7KFO_IAC/7KFO_IAC1.pdb
 OpenBabel08242616453D

 14 15  0  0  0  0  0  0  0  0999 V2000
   -3.4470   46.3090   37.7480 C   0  0  0  0  0  0  0  0  0  0  0  0
   -2.5720   46.7700   38.7280 C   0  0  0  0  0  0  0  0  0  0  0  0
   -1.9130   48.0050   38.5590 C   0  0  0  0  0  0  0  0  0  0  0  0
   -2.1650   48.7550   37.4090 C   0  0  0  0  0  0  0  0  0  0  0  0
   -3.0520   48.2760   36.4310 C   0  0  0  0  0  0  0  0  0  0  0  0
   -3.7000   47.0670   36.6020 C   0  0  0  0  0  0  0  0  0  0  0  0
   -2.5680   45.7620   39.7290 C   0  0  0  0  0  0  0  0  0  0  0  0
   -3.4370   44.7820   39.3120 C   0  0  0  0  0  0  0  0  0  0  0  0
   -3.9460   45.1200   38.1220 N   0  0  0  0  0  0  0  0  0  0  0  0
   -4.6090   44.5610   37.5840 H   0  0  0  0  0  0  0  0  0  0  0  0
   -1.7490   45.7120   41.0170 C   0  0  0  0  0  0  0  0  0  0  0  0
   -2.2340   46.6270   42.1180 C   0  0  0  0  0  0  0  0  0  0  0  0
   -2.6470   46.1160   43.1840 O   0  0  0  0  0  0  0  0  0  0  0  0
   -2.1930   47.8660   41.9580 O   0  0  0  0  0  0  0  0  0  0  0  0
  1  6  2  0  0  0  0
  1  9  1  0  0  0  0
  1  2  1  0  0  0  0
  2  3  2  0  0  0  0
  2  7  1  0  0  0  0
  3  4  1  0  0  0  0
  4  5  2  0  0  0  0
  5  6  1  0  0  0  0
  7  8  2  0  0  0  0
  7 11  1  0  0  0  0
  8  9  1  0  0  0  0
  9 10  1  0  0  0  0
 11 12  1  0  0  0  0
 12 14  2  0  0  0  0
 12 13  1  0  0  0  0
M  END
>  <MODEL>
1

>  <REMARK>
 VINA RESULT:    -5.731      0.000      0.000
 INTER + INTRA:          -6.529
 INTER:                  -6.402
 INTRA:                  -0.128
 UNBOUND:                -0.128
  2 active torsions:
  status: ('A' for Active; 'I' for Inactive)
    1  A    between atoms: C_7  and  C_9 
    2  A    between atoms: C_9  and  C_10 

>  <COMPND>
    /home/daniil/Downloads/ml_docking_review/databases/Vina/outputs/7KFO_IAC/7KFO_IAC.pdbqt 

>  <AUTHOR>
    GENERATED BY OPEN BABEL 3.2.1

>  <MASTER>
        0    0    0    0    0    0    0    0   14    0   14    0

$$$$
