../../databases/Vina/outputs/6ZC3_JOR/6ZC3_JOR1.pdb
 OpenBabel08242616453D

 16 16  0  0  0  0  0  0  0  0999 V2000
  -20.6030   35.5580    4.5590 C   0  0  0  0  0  0  0  0  0  0  0  0
  -21.6570   35.3520    3.6770 C   0  0  0  0  0  0  0  0  0  0  0  0
  -22.6460   34.4200    3.9730 C   0  0  0  0  0  0  0  0  0  0  0  0
  -22.5900   33.7010    5.1620 C   0  0  0  0  0  0  0  0  0  0  0  0
  -23.5440   32.7990    5.4590 F   0  0  0  0  0  0  0  0  0  0  0  0
  -21.5410   33.9100    6.0470 C   0  0  0  0  0  0  0  0  0  0  0  0
  -20.5510   34.8400    5.7510 C   0  0  0  0  0  0  0  0  0  0  0  0
  -19.6600   36.4540    4.2740 N   0  0  0  0  0  0  0  0  0  0  0  0
  -19.6610   37.3590    4.7450 H   0  0  0  0  0  0  0  0  0  0  0  0
  -18.5050   36.1110    3.1740 S   0  0  0  0  0  0  0  0  0  0  0  0
  -19.0010   36.4540    1.8010 O   0  0  0  0  0  0  0  0  0  0  0  0
  -18.1710   34.6520    3.2390 O   0  0  0  0  0  0  0  0  0  0  0  0
  -17.0450   37.0680    3.5290 C   0  0  0  0  0  0  0  0  0  0  0  0
  -19.4120   35.0550    6.7440 C   0  0  0  0  0  0  0  0  0  0  0  0
  -18.9740   34.0500    7.3440 O   0  0  0  0  0  0  0  0  0  0  0  0
  -19.0070   36.2230    6.9300 O   0  0  0  0  0  0  0  0  0  0  0  0
  1  2  2  0  0  0  0
  1  8  1  0  0  0  0
  1  7  1  0  0  0  0
  2  3  1  0  0  0  0
  3  4  2  0  0  0  0
  4  5  1  0  0  0  0
  4  6  1  0  0  0  0
  6  7  2  0  0  0  0
  7 14  1  0  0  0  0
  8 10  1  0  0  0  0
  8  9  1  0  0  0  0
 10 11  2  0  0  0  0
 10 12  2  0  0  0  0
 10 13  1  0  0  0  0
 14 16  2  0  0  0  0
 14 15  1  0  0  0  0
M  END
>  <MODEL>
1

>  <REMARK>
 VINA RESULT:    -6.511      0.000      0.000
 INTER + INTRA:          -8.107
 INTER:                  -7.653
 INTRA:                  -0.454
 UNBOUND:                -0.454
  3 active torsions:
  status: ('A' for Active; 'I' for Inactive)
    1  A    between atoms: S_2  and  N_5 
    2  A    between atoms: N_5  and  C_7 
    3  A    between atoms: C_13  and  C_14 

>  <COMPND>
    /home/daniil/Downloads/ml_docking_review/databases/Vina/outputs/6ZC3_JOR/6ZC3_JOR.pdbqt 

>  <AUTHOR>
    GENERATED BY OPEN BABEL 3.2.1

>  <MASTER>
        0    0    0    0    0    0    0    0   16    0   16    0

$$$$
