../../databases/Vina/outputs/7DKT_GLF/7DKT_GLF1.pdb
 OpenBabel08242612033D

 16 16  0  0  1  0  0  0  0  0999 V2000
   57.1570   66.8360   61.9260 C   0  0  1  0  0  0  0  0  0  0  0  0
   56.4910   66.6630   60.5660 C   0  0  1  0  0  0  0  0  0  0  0  0
   57.5280   66.2390   59.5180 C   0  0  2  0  0  0  0  0  0  0  0  0
   58.6180   67.2980   59.4530 C   0  0  1  0  0  0  0  0  0  0  0  0
   59.2070   67.5690   60.8420 C   0  0  2  0  0  0  0  0  0  0  0  0
   57.6610   65.6330   62.3310 F   0  0  0  0  0  0  0  0  0  0  0  0
   58.1910   67.8000   61.8380 O   0  0  0  0  0  0  0  0  0  0  0  0
   60.1640   68.7480   60.8220 C   0  0  0  0  0  0  0  0  0  0  0  0
   59.9030   69.5800   59.6800 O   0  0  0  0  0  0  0  0  0  0  0  0
   59.2820   69.1560   59.1000 H   0  0  0  0  0  0  0  0  0  0  0  0
   59.6500   66.8930   58.5470 O   0  0  0  0  0  0  0  0  0  0  0  0
   59.2860   66.3570   57.8530 H   0  0  0  0  0  0  0  0  0  0  0  0
   56.9490   66.1210   58.2170 O   0  0  0  0  0  0  0  0  0  0  0  0
   57.1560   65.2870   57.8140 H   0  0  0  0  0  0  0  0  0  0  0  0
   55.4230   65.7160   60.6660 O   0  0  0  0  0  0  0  0  0  0  0  0
   55.7770   64.8370   60.7420 H   0  0  0  0  0  0  0  0  0  0  0  0
  1  2  1  0  0  0  0
  1  7  1  0  0  0  0
  1  6  1  6  0  0  0
  2  3  1  0  0  0  0
  2 15  1  1  0  0  0
  3 13  1  6  0  0  0
  3  4  1  0  0  0  0
  4 11  1  6  0  0  0
  4  5  1  0  0  0  0
  5  8  1  6  0  0  0
  5  7  1  0  0  0  0
  8  9  1  0  0  0  0
  9 10  1  0  0  0  0
 11 12  1  0  0  0  0
 13 14  1  0  0  0  0
 15 16  1  0  0  0  0
M  END
>  <MODEL>
1

>  <REMARK>
 VINA RESULT:    -7.240      0.000      0.000
 INTER + INTRA:          -8.765
 INTER:                  -8.510
 INTRA:                  -0.255
 UNBOUND:                -0.255
  5 active torsions:
  status: ('A' for Active; 'I' for Inactive)
    1  A    between atoms: C_2  and  O_8 
    2  A    between atoms: C_3  and  O_10 
    3  A    between atoms: C_4  and  O_12 
    4  A    between atoms: C_5  and  C_6 
    5  A    between atoms: C_6  and  O_15 

>  <COMPND>
    /home/daniil/Downloads/ml_docking_review/databases/Vina/outputs/7DKT_GLF/7DKT_GLF.pdbqt 

>  <AUTHOR>
    GENERATED BY OPEN BABEL 3.2.1

>  <MASTER>
        0    0    0    0    0    0    0    0   16    0   16    0

$$$$
