../../databases/Vina/outputs/7BLA_WCS/7BLA_WCS1.pdb
 OpenBabel08242616453D

 36 38  0  0  1  0  0  0  0  0999 V2000
   -7.7630    3.5620    3.5320 C   0  0  1  0  0  0  0  0  0  0  0  0
   -6.4300    2.9360    5.2940 C   0  0  1  0  0  0  0  0  0  0  0  0
   -5.5240    4.3720    3.8240 C   0  0  0  0  0  0  0  0  0  0  0  0
   -6.7070    4.3700    3.0870 C   0  0  0  0  0  0  0  0  0  0  0  0
   -7.6000    2.8530    4.6650 N   0  0  0  0  0  0  0  0  0  0  0  0
   -8.3520    2.2690    5.0300 H   0  0  0  0  0  0  0  0  0  0  0  0
   -5.3990    3.6740    4.9320 N   0  0  0  0  0  0  0  0  0  0  0  0
   -4.5430    3.7020    5.4860 H   0  0  0  0  0  0  0  0  0  0  0  0
   -9.0360    3.5400    2.8800 C   0  0  0  0  0  0  0  0  0  0  0  0
   -9.6720    2.3560    2.5080 C   0  0  0  0  0  0  0  0  0  0  0  0
  -10.8640    2.3690    1.8100 C   0  0  0  0  0  0  0  0  0  0  0  0
  -11.4430    3.5650    1.4370 C   0  0  0  0  0  0  0  0  0  0  0  0
  -10.8380    4.7530    1.7810 C   0  0  0  0  0  0  0  0  0  0  0  0
   -9.6450    4.7350    2.4880 C   0  0  0  0  0  0  0  0  0  0  0  0
  -12.6280    3.4970    0.7180 O   0  0  0  0  0  0  0  0  0  0  0  0
  -12.8710    2.3590   -0.0610 C   0  0  0  0  0  0  0  0  0  0  0  0
  -14.1430    1.7030    0.4690 C   0  0  0  0  0  0  0  0  0  0  0  0
  -14.2590    0.2800   -0.0610 C   0  0  0  0  0  0  0  0  0  0  0  0
  -13.2790   -0.6370    0.5140 N   0  0  0  0  0  0  0  0  0  0  0  0
  -13.5290   -0.8350    1.9340 C   0  0  0  0  0  0  0  0  0  0  0  0
  -13.3250   -1.9260   -0.1750 C   0  0  0  0  0  0  0  0  0  0  0  0
   -6.2260    1.9860    6.8080 S   0  0  0  0  0  0  0  0  0  0  0  0
   -4.4900    1.9620    7.0910 C   0  0  0  0  0  0  0  0  0  0  0  0
   -6.9260    2.6710    7.9060 O   0  0  0  0  0  0  0  0  0  0  0  0
   -6.7070    0.6570    6.5700 O   0  0  0  0  0  0  0  0  0  0  0  0
   -4.3920    5.1290    3.4700 N   0  0  0  0  0  0  0  0  0  0  0  0
   -3.4640    4.7550    3.6690 H   0  0  0  0  0  0  0  0  0  0  0  0
   -4.5060    6.4230    2.8320 C   0  0  0  0  0  0  0  0  0  0  0  0
   -3.6350    6.5890    1.5940 C   0  0  0  0  0  0  0  0  0  0  0  0
   -4.0120    5.5860    0.5070 C   0  0  0  0  0  0  0  0  0  0  0  0
   -4.7340    6.2900   -0.5370 N   0  0  0  0  0  0  0  0  0  0  0  0
   -4.1970    7.1510   -1.4430 N   0  0  0  0  0  0  0  0  0  0  0  0
   -5.1740    7.5410   -2.2410 C   0  0  0  0  0  0  0  0  0  0  0  0
   -3.2210    7.4420   -1.4960 H   0  0  0  0  0  0  0  0  0  0  0  0
   -6.3420    6.9320   -1.8280 C   0  0  0  0  0  0  0  0  0  0  0  0
   -6.0310    6.1470   -0.7480 C   0  0  0  0  0  0  0  0  0  0  0  0
  1  9  1  1  0  0  0
  1  4  1  0  0  0  0
  1  5  1  0  0  0  0
  2  5  1  0  0  0  0
  2  7  1  0  0  0  0
  2 22  1  1  0  0  0
  3  4  2  0  0  0  0
  3 26  1  0  0  0  0
  3  7  1  0  0  0  0
  5  6  1  0  0  0  0
  7  8  1  0  0  0  0
  9 14  2  0  0  0  0
  9 10  1  0  0  0  0
 10 11  2  0  0  0  0
 11 12  1  0  0  0  0
 12 15  1  0  0  0  0
 12 13  2  0  0  0  0
 13 14  1  0  0  0  0
 15 16  1  0  0  0  0
 16 17  1  0  0  0  0
 17 18  1  0  0  0  0
 18 19  1  0  0  0  0
 19 21  1  0  0  0  0
 19 20  1  0  0  0  0
 22 25  2  0  0  0  0
 22 23  1  0  0  0  0
 22 24  2  0  0  0  0
 26 28  1  0  0  0  0
 26 27  1  0  0  0  0
 28 29  1  0  0  0  0
 29 30  1  0  0  0  0
 30 31  1  0  0  0  0
 31 32  1  0  0  0  0
 31 36  1  0  0  0  0
 32 33  1  0  0  0  0
 32 34  1  0  0  0  0
 33 35  1  0  0  0  0
 35 36  2  0  0  0  0
M  END
>  <MODEL>
1

>  <REMARK>
 VINA RESULT:    -7.609      0.000      0.000
 INTER + INTRA:         -14.298
 INTER:                 -12.947
 INTRA:                  -1.352
 UNBOUND:                -1.352
  12 active torsions:
  status: ('A' for Active; 'I' for Inactive)
    1  A    between atoms: C_1  and  C_2 
    2  A    between atoms: C_3  and  S_36 
    3  A    between atoms: C_7  and  N_30 
    4  A    between atoms: C_9  and  C_10 
    5  A    between atoms: C_9  and  N_25 
    6  A    between atoms: C_10  and  C_11 
    7  A    between atoms: C_11  and  O_35 
    8  A    between atoms: C_12  and  O_35 
    9  A    between atoms: C_15  and  N_30 
   10  A    between atoms: C_15  and  C_16 
   11  A    between atoms: C_16  and  C_17 
   12  A    between atoms: C_17  and  N_32 

>  <COMPND>
    /home/daniil/Downloads/ml_docking_review/databases/Vina/outputs/7BLA_WCS/7BLA_WCS.pdbqt 

>  <AUTHOR>
    GENERATED BY OPEN BABEL 3.2.1

>  <MASTER>
        0    0    0    0    0    0    0    0   36    0   36    0

$$$$
