../../databases/Vina/outputs/7SDD_4IP/7SDD_4IP1.pdb
 OpenBabel08242616453D

 30 30  0  0  1  0  0  0  0  0999 V2000
   10.9210   -1.3220   -5.3220 C   0  0  2  0  0  0  0  0  0  0  0  0
   12.2300   -1.8180   -5.9130 C   0  0  1  0  0  0  0  0  0  0  0  0
   11.9060   -2.8470   -6.9780 C   0  0  1  0  0  0  0  0  0  0  0  0
   11.1250   -2.1860   -8.1100 C   0  0  2  0  0  0  0  0  0  0  0  0
    9.7930   -1.7070   -7.5520 C   0  0  1  0  0  0  0  0  0  0  0  0
   10.0570   -0.7160   -6.4300 C   0  0  1  0  0  0  0  0  0  0  0  0
   11.2030   -0.3240   -4.3430 O   0  0  0  0  0  0  0  0  0  0  0  0
   11.1240   -0.6280   -2.7610 P   0  0  0  0  0  0  0  0  0  0  0  0
   11.8220    0.5090   -2.0580 O   0  0  0  0  0  0  0  0  0  0  0  0
   11.8090   -1.9400   -2.4520 O   0  0  0  0  0  0  0  0  0  0  0  0
    9.6970   -0.7060   -2.2850 O   0  0  0  0  0  0  0  0  0  0  0  0
    8.8250   -0.3230   -5.8040 O   0  0  0  0  0  0  0  0  0  0  0  0
    8.1300   -0.6650   -6.3540 H   0  0  0  0  0  0  0  0  0  0  0  0
   12.9210   -0.7200   -6.4890 O   0  0  0  0  0  0  0  0  0  0  0  0
   13.8050   -0.9910   -6.7050 H   0  0  0  0  0  0  0  0  0  0  0  0
    9.0940   -1.0650   -8.6240 O   0  0  0  0  0  0  0  0  0  0  0  0
    7.6030   -1.4850   -9.0640 P   0  0  0  0  0  0  0  0  0  0  0  0
    7.0870   -0.4190  -10.0010 O   0  0  0  0  0  0  0  0  0  0  0  0
    7.5960   -2.8240   -9.7590 O   0  0  0  0  0  0  0  0  0  0  0  0
    6.7510   -1.5870   -7.8150 O   0  0  0  0  0  0  0  0  0  0  0  0
   13.0890   -3.3780   -7.5420 O   0  0  0  0  0  0  0  0  0  0  0  0
   13.9200   -4.6070   -6.9550 P   0  0  0  0  0  0  0  0  0  0  0  0
   12.9530   -5.6430   -6.4590 O   0  0  0  0  0  0  0  0  0  0  0  0
   14.8030   -4.1030   -5.8530 O   0  0  0  0  0  0  0  0  0  0  0  0
   14.7640   -5.1720   -8.0810 O   0  0  0  0  0  0  0  0  0  0  0  0
   10.9840   -3.1340   -9.1680 O   0  0  0  0  0  0  0  0  0  0  0  0
   11.3810   -2.8140  -10.7110 P   0  0  0  0  0  0  0  0  0  0  0  0
   12.2010   -1.5470  -10.7100 O   0  0  0  0  0  0  0  0  0  0  0  0
   12.1890   -3.9660  -11.2630 O   0  0  0  0  0  0  0  0  0  0  0  0
   10.1440   -2.6480  -11.5560 O   0  0  0  0  0  0  0  0  0  0  0  0
  1  6  1  0  0  0  0
  1  2  1  0  0  0  0
  1  7  1  1  0  0  0
  2  3  1  0  0  0  0
  2 14  1  6  0  0  0
  3  4  1  0  0  0  0
  3 21  1  6  0  0  0
  4 26  1  6  0  0  0
  4  5  1  0  0  0  0
  5 16  1  6  0  0  0
  5  6  1  0  0  0  0
  6 12  1  1  0  0  0
  7  8  1  0  0  0  0
  8 10  2  0  0  0  0
  8 11  1  0  0  0  0
  8  9  1  0  0  0  0
 12 13  1  0  0  0  0
 14 15  1  0  0  0  0
 16 17  1  0  0  0  0
 17 18  2  0  0  0  0
 17 19  1  0  0  0  0
 17 20  1  0  0  0  0
 21 22  1  0  0  0  0
 22 25  2  0  0  0  0
 22 23  1  0  0  0  0
 22 24  1  0  0  0  0
 26 27  1  0  0  0  0
 27 30  2  0  0  0  0
 27 29  1  0  0  0  0
 27 28  1  0  0  0  0
M  END
>  <MODEL>
1

>  <REMARK>
 VINA RESULT:    -9.097      0.000      0.000
 INTER + INTRA:         -15.383
 INTER:                 -13.883
 INTRA:                  -1.499
 UNBOUND:                -1.499
  10 active torsions:
  status: ('A' for Active; 'I' for Inactive)
    1  A    between atoms: C_1  and  O_2 
    2  A    between atoms: O_2  and  P_15 
    3  A    between atoms: C_3  and  O_4 
    4  A    between atoms: C_6  and  O_7 
    5  A    between atoms: O_7  and  P_19 
    6  A    between atoms: C_8  and  O_9 
    7  A    between atoms: O_9  and  P_23 
    8  A    between atoms: C_10  and  O_11 
    9  A    between atoms: O_11  and  P_27 
   10  A    between atoms: C_12  and  O_13 

>  <COMPND>
    /home/daniil/Downloads/ml_docking_review/databases/Vina/outputs/7SDD_4IP/7SDD_4IP.pdbqt 

>  <AUTHOR>
    GENERATED BY OPEN BABEL 3.2.1

>  <MASTER>
        0    0    0    0    0    0    0    0   30    0   30    0

$$$$
