../../databases/Vina/outputs/7Q19_DSM/7Q19_DSM1.pdb
 OpenBabel08242616453D

 21 23  0  0  0  0  0  0  0  0999 V2000
   -5.5610   49.0810   15.9980 N   0  0  0  0  0  0  0  0  0  0  0  0
   -6.6090   49.2130   15.0310 C   0  0  0  0  0  0  0  0  0  0  0  0
   -7.6060   50.1660   15.2080 C   0  0  0  0  0  0  0  0  0  0  0  0
   -8.6180   50.3070   14.2730 C   0  0  0  0  0  0  0  0  0  0  0  0
   -8.6490   49.5010   13.1650 C   0  0  0  0  0  0  0  0  0  0  0  0
   -7.6710   48.5440   12.9830 C   0  0  0  0  0  0  0  0  0  0  0  0
   -6.6490   48.3670   13.9110 C   0  0  0  0  0  0  0  0  0  0  0  0
   -5.6880   47.2410   13.5530 C   0  0  0  0  0  0  0  0  0  0  0  0
   -4.6130   46.9210   14.5370 C   0  0  0  0  0  0  0  0  0  0  0  0
   -3.7310   48.1050   14.7920 C   0  0  0  0  0  0  0  0  0  0  0  0
   -4.2270   49.1860   15.5140 C   0  0  0  0  0  0  0  0  0  0  0  0
   -2.4170   48.1360   14.3440 C   0  0  0  0  0  0  0  0  0  0  0  0
   -1.6190   49.2290   14.6290 C   0  0  0  0  0  0  0  0  0  0  0  0
   -2.1160   50.2880   15.3740 C   0  0  0  0  0  0  0  0  0  0  0  0
   -3.4240   50.2750   15.8190 C   0  0  0  0  0  0  0  0  0  0  0  0
   -5.8090   49.6110   17.3270 C   0  0  0  0  0  0  0  0  0  0  0  0
   -6.4140   48.6050   18.2680 C   0  0  0  0  0  0  0  0  0  0  0  0
   -5.3150   47.6910   18.8130 C   0  0  0  0  0  0  0  0  0  0  0  0
   -5.1830   47.7340   20.2690 N   0  0  0  0  0  0  0  0  0  0  0  0
   -4.1870   46.8130   20.8240 C   0  0  0  0  0  0  0  0  0  0  0  0
   -5.7410   48.3570   20.8540 H   0  0  0  0  0  0  0  0  0  0  0  0
  1  2  1  0  0  0  0
  1 11  1  0  0  0  0
  1 16  1  0  0  0  0
  2  7  2  0  0  0  0
  2  3  1  0  0  0  0
  3  4  2  0  0  0  0
  4  5  1  0  0  0  0
  5  6  2  0  0  0  0
  6  7  1  0  0  0  0
  7  8  1  0  0  0  0
  8  9  1  0  0  0  0
  9 10  1  0  0  0  0
 10 12  2  0  0  0  0
 10 11  1  0  0  0  0
 11 15  2  0  0  0  0
 12 13  1  0  0  0  0
 13 14  2  0  0  0  0
 14 15  1  0  0  0  0
 16 17  1  0  0  0  0
 17 18  1  0  0  0  0
 18 19  1  0  0  0  0
 19 20  1  0  0  0  0
 19 21  1  0  0  0  0
M  END
>  <MODEL>
1

>  <REMARK>
 VINA RESULT:    -7.817      0.000      0.000
 INTER + INTRA:         -10.148
 INTER:                  -9.645
 INTRA:                  -0.502
 UNBOUND:                -0.502
  4 active torsions:
  status: ('A' for Active; 'I' for Inactive)
    1  A    between atoms: N_2  and  C_4 
    2  A    between atoms: C_4  and  C_5 
    3  A    between atoms: C_5  and  C_6 
    4  A    between atoms: C_6  and  N_7 

>  <COMPND>
    /home/daniil/Downloads/ml_docking_review/databases/Vina/outputs/7Q19_DSM/7Q19_DSM.pdbqt 

>  <AUTHOR>
    GENERATED BY OPEN BABEL 3.2.1

>  <MASTER>
        0    0    0    0    0    0    0    0   21    0   21    0

$$$$
