../../databases/Vina/outputs/7RZL_NPO/7RZL_NPO1.pdb
 OpenBabel08242612033D

 11 11  0  0  0  0  0  0  0  0999 V2000
   30.2840    5.5560   61.9110 C   0  0  0  0  0  0  0  0  0  0  0  0
   31.5390    4.9690   61.9670 C   0  0  0  0  0  0  0  0  0  0  0  0
   32.6440    5.7210   61.6370 C   0  0  0  0  0  0  0  0  0  0  0  0
   32.5070    7.0350   61.2380 C   0  0  0  0  0  0  0  0  0  0  0  0
   31.2570    7.6240   61.1880 C   0  0  0  0  0  0  0  0  0  0  0  0
   30.1360    6.8880   61.5200 C   0  0  0  0  0  0  0  0  0  0  0  0
   29.1500    4.8130   62.2410 N   0  0  0  0  0  0  0  0  0  0  0  0
   27.9470    5.1550   61.6470 O   0  0  0  0  0  0  0  0  0  0  0  0
   29.2040    3.8850   63.0330 O   0  0  0  0  0  0  0  0  0  0  0  0
   33.6050    7.7600   60.9220 O   0  0  0  0  0  0  0  0  0  0  0  0
   33.9710    7.7050   60.0470 H   0  0  0  0  0  0  0  0  0  0  0  0
  1  6  2  0  0  0  0
  1  2  1  0  0  0  0
  1  7  1  0  0  0  0
  2  3  2  0  0  0  0
  3  4  1  0  0  0  0
  4 10  1  0  0  0  0
  4  5  2  0  0  0  0
  5  6  1  0  0  0  0
  7  8  2  0  0  0  0
  7  9  2  0  0  0  0
 10 11  1  0  0  0  0
M  END
>  <MODEL>
1

>  <REMARK>
 VINA RESULT:    -6.233      0.000      0.000
 INTER + INTRA:          -6.823
 INTER:                  -6.780
 INTRA:                  -0.044
 UNBOUND:                -0.044
  2 active torsions:
  status: ('A' for Active; 'I' for Inactive)
    1  A    between atoms: C_1  and  N_9 
    2  A    between atoms: C_4  and  O_7 

>  <COMPND>
    /home/daniil/Downloads/ml_docking_review/databases/Vina/outputs/7RZL_NPO/7RZL_NPO.pdbqt 

>  <AUTHOR>
    GENERATED BY OPEN BABEL 3.2.1

>  <MASTER>
        0    0    0    0    0    0    0    0   11    0   11    0

$$$$
