../../databases/Vina/outputs/7NXO_UU8/7NXO_UU81.pdb
 OpenBabel08242616453D

 35 38  0  0  0  0  0  0  0  0999 V2000
   40.9990    0.9570   10.6140 C   0  0  0  0  0  0  0  0  0  0  0  0
   41.7640    2.0630   10.2120 C   0  0  0  0  0  0  0  0  0  0  0  0
   43.5730    0.5610    9.6380 C   0  0  0  0  0  0  0  0  0  0  0  0
   42.8030   -0.5330   10.0330 C   0  0  0  0  0  0  0  0  0  0  0  0
   43.0510    1.8590    9.7220 C   0  0  0  0  0  0  0  0  0  0  0  0
   43.8370    2.9830    9.3130 C   0  0  0  0  0  0  0  0  0  0  0  0
   44.4910    3.8500    8.9770 N   0  0  0  0  0  0  0  0  0  0  0  0
   39.7590    1.1530   11.0970 F   0  0  0  0  0  0  0  0  0  0  0  0
   41.5210   -0.3390   10.5360 C   0  0  0  0  0  0  0  0  0  0  0  0
   44.8140    0.2990    9.1370 O   0  0  0  0  0  0  0  0  0  0  0  0
   45.9510    0.5110    9.8500 C   0  0  0  0  0  0  0  0  0  0  0  0
   45.9580    0.6160   11.2430 C   0  0  0  0  0  0  0  0  0  0  0  0
   47.1640    0.8380   11.9090 C   0  0  0  0  0  0  0  0  0  0  0  0
   48.3520    0.9470   11.1930 C   0  0  0  0  0  0  0  0  0  0  0  0
   48.3440    0.8390    9.8050 C   0  0  0  0  0  0  0  0  0  0  0  0
   47.1460    0.6210    9.1350 C   0  0  0  0  0  0  0  0  0  0  0  0
   47.1560    0.5040    7.6030 C   0  0  0  0  0  0  0  0  0  0  0  0
   40.7190   -1.4360   10.9290 N   0  0  0  0  0  0  0  0  0  0  0  0
   40.1470   -2.2620    9.9540 C   0  0  0  0  0  0  0  0  0  0  0  0
   39.3260   -3.3310   10.3180 C   0  0  0  0  0  0  0  0  0  0  0  0
   40.3720   -2.0510    8.7640 O   0  0  0  0  0  0  0  0  0  0  0  0
   39.0720   -3.5670   11.6650 C   0  0  0  0  0  0  0  0  0  0  0  0
   39.6210   -2.7430   12.6440 N   0  0  0  0  0  0  0  0  0  0  0  0
   40.4440   -1.6700   12.2770 C   0  0  0  0  0  0  0  0  0  0  0  0
   39.4230   -2.9190   13.6290 H   0  0  0  0  0  0  0  0  0  0  0  0
   40.9320   -0.9400   13.1400 O   0  0  0  0  0  0  0  0  0  0  0  0
   38.0280   -4.8840   12.1890 S   0  0  0  0  0  0  0  0  0  0  0  0
   37.4320   -5.4800   10.9600 O   0  0  0  0  0  0  0  0  0  0  0  0
   38.8760   -5.7880   13.0240 O   0  0  0  0  0  0  0  0  0  0  0  0
   36.8490   -4.0920   13.1480 C   0  0  0  0  0  0  0  0  0  0  0  0
   36.9830   -4.0740   14.5300 C   0  0  0  0  0  0  0  0  0  0  0  0
   36.0420   -3.3890   15.2850 C   0  0  0  0  0  0  0  0  0  0  0  0
   34.9830   -2.7220   14.6710 C   0  0  0  0  0  0  0  0  0  0  0  0
   34.8720   -2.7400   13.2870 C   0  0  0  0  0  0  0  0  0  0  0  0
   35.8090   -3.4180   12.5170 C   0  0  0  0  0  0  0  0  0  0  0  0
  1  2  2  0  0  0  0
  1  9  1  0  0  0  0
  1  8  1  0  0  0  0
  2  5  1  0  0  0  0
  3 10  1  0  0  0  0
  3  5  2  0  0  0  0
  3  4  1  0  0  0  0
  4  9  2  0  0  0  0
  5  6  1  0  0  0  0
  6  7  3  0  0  0  0
  9 18  1  0  0  0  0
 10 11  1  0  0  0  0
 11 16  2  0  0  0  0
 11 12  1  0  0  0  0
 12 13  2  0  0  0  0
 13 14  1  0  0  0  0
 14 15  2  0  0  0  0
 15 16  1  0  0  0  0
 16 17  1  0  0  0  0
 18 19  1  0  0  0  0
 18 24  1  0  0  0  0
 19 21  2  0  0  0  0
 19 20  1  0  0  0  0
 20 22  2  0  0  0  0
 22 27  1  0  0  0  0
 22 23  1  0  0  0  0
 23 24  1  0  0  0  0
 23 25  1  0  0  0  0
 24 26  2  0  0  0  0
 27 28  2  0  0  0  0
 27 29  2  0  0  0  0
 27 30  1  0  0  0  0
 30 35  2  0  0  0  0
 30 31  1  0  0  0  0
 31 32  2  0  0  0  0
 32 33  1  0  0  0  0
 33 34  2  0  0  0  0
 34 35  1  0  0  0  0
M  END
>  <MODEL>
1

>  <REMARK>
 VINA RESULT:   -11.938      0.000      0.000
 INTER + INTRA:         -16.341
 INTER:                 -15.428
 INTRA:                  -0.913
 UNBOUND:                -0.913
  5 active torsions:
  status: ('A' for Active; 'I' for Inactive)
    1  A    between atoms: N_1  and  C_24 
    2  A    between atoms: C_4  and  S_27 
    3  A    between atoms: C_10  and  O_18 
    4  A    between atoms: C_17  and  O_18 
    5  A    between atoms: S_27  and  C_30 

>  <COMPND>
    /home/daniil/Downloads/ml_docking_review/databases/Vina/outputs/7NXO_UU8/7NXO_UU8.pdbqt 

>  <AUTHOR>
    GENERATED BY OPEN BABEL 3.2.1

>  <MASTER>
        0    0    0    0    0    0    0    0   35    0   35    0

$$$$
