../../databases/Vina/outputs/7JR8_VH7/7JR8_VH71.pdb
 OpenBabel08242616453D

 31 34  0  0  1  0  0  0  0  0999 V2000
   10.5760  -26.0340   58.5570 C   0  0  0  0  0  0  0  0  0  0  0  0
   10.4820  -27.4610   58.6020 C   0  0  0  0  0  0  0  0  0  0  0  0
    9.3050  -28.0960   58.4220 C   0  0  0  0  0  0  0  0  0  0  0  0
    8.1360  -27.3490   58.2080 C   0  0  2  0  0  0  0  0  0  0  0  0
    6.1640  -26.5550   57.8480 C   0  0  0  0  0  0  0  0  0  0  0  0
    6.9880  -25.4680   57.9500 C   0  0  0  0  0  0  0  0  0  0  0  0
    9.4510  -25.3120   58.3440 C   0  0  0  0  0  0  0  0  0  0  0  0
    6.8800  -27.7350   58.0040 N   0  0  0  0  0  0  0  0  0  0  0  0
    6.5210  -28.6890   57.9690 H   0  0  0  0  0  0  0  0  0  0  0  0
    8.2500  -25.9670   58.1900 N   0  0  0  0  0  0  0  0  0  0  0  0
   11.8960  -25.4080   58.7200 C   0  0  0  0  0  0  0  0  0  0  0  0
   12.7950  -25.9560   59.3610 O   0  0  0  0  0  0  0  0  0  0  0  0
   12.0870  -24.2630   58.0570 N   0  0  0  0  0  0  0  0  0  0  0  0
   11.3150  -23.8720   57.5160 H   0  0  0  0  0  0  0  0  0  0  0  0
   13.3610  -23.5540   58.0810 C   0  0  1  0  0  0  0  0  0  0  0  0
   14.1960  -23.9190   56.8660 C   0  0  0  0  0  0  0  0  0  0  0  0
   15.5200  -23.1840   56.8660 C   0  0  0  0  0  0  0  0  0  0  0  0
   15.3480  -21.6830   56.9490 C   0  0  1  0  0  0  0  0  0  0  0  0
   14.5030  -21.3330   58.1700 C   0  0  0  0  0  0  0  0  0  0  0  0
   13.1610  -22.0630   58.1540 C   0  0  0  0  0  0  0  0  0  0  0  0
   16.6690  -20.9040   56.8720 C   0  0  0  0  0  0  0  0  0  0  0  0
   17.4670  -21.0220   58.1570 C   0  0  0  0  0  0  0  0  0  0  0  0
   17.4700  -21.4620   55.7430 C   0  0  0  0  0  0  0  0  0  0  0  0
   16.4510  -19.5000   56.5830 O   0  0  0  0  0  0  0  0  0  0  0  0
   16.9450  -19.2670   55.8060 H   0  0  0  0  0  0  0  0  0  0  0  0
    4.7330  -26.6010   57.5000 C   0  0  0  0  0  0  0  0  0  0  0  0
    4.1130  -27.8170   57.2210 C   0  0  0  0  0  0  0  0  0  0  0  0
    2.7960  -27.8520   56.7870 C   0  0  0  0  0  0  0  0  0  0  0  0
    2.0940  -26.6810   56.6080 C   0  0  0  0  0  0  0  0  0  0  0  0
    2.7090  -25.4690   56.8460 C   0  0  0  0  0  0  0  0  0  0  0  0
    4.0220  -25.4250   57.2770 C   0  0  0  0  0  0  0  0  0  0  0  0
  1  7  2  0  0  0  0
  1  2  1  0  0  0  0
  1 11  1  0  0  0  0
  2  3  2  0  0  0  0
  4  3  1  6  0  0  0
  4  8  1  0  0  0  0
  4 10  1  0  0  0  0
  5 26  1  0  0  0  0
  5  6  2  0  0  0  0
  5  8  1  0  0  0  0
  6 10  1  0  0  0  0
  7 10  1  0  0  0  0
  8  9  1  0  0  0  0
 11 13  1  0  0  0  0
 11 12  2  0  0  0  0
 13 14  1  0  0  0  0
 15 13  1  6  0  0  0
 15 16  1  0  0  0  0
 15 20  1  0  0  0  0
 16 17  1  0  0  0  0
 17 18  1  0  0  0  0
 18 21  1  1  0  0  0
 18 19  1  0  0  0  0
 19 20  1  0  0  0  0
 21 23  1  0  0  0  0
 21 24  1  0  0  0  0
 21 22  1  0  0  0  0
 24 25  1  0  0  0  0
 26 27  2  0  0  0  0
 26 31  1  0  0  0  0
 27 28  1  0  0  0  0
 28 29  2  0  0  0  0
 29 30  1  0  0  0  0
 30 31  2  0  0  0  0
M  END
>  <MODEL>
1

>  <REMARK>
 VINA RESULT:   -10.291      0.000      0.000
 INTER + INTRA:         -13.686
 INTER:                 -12.998
 INTRA:                  -0.687
 UNBOUND:                -0.687
  5 active torsions:
  status: ('A' for Active; 'I' for Inactive)
    1  A    between atoms: C_2  and  N_24 
    2  A    between atoms: C_5  and  C_7 
    3  A    between atoms: C_5  and  O_29 
    4  A    between atoms: C_10  and  C_11 
       I    between atoms: C_10  and  N_24 
    5  A    between atoms: C_15  and  C_18 

>  <COMPND>
    /home/daniil/Downloads/ml_docking_review/databases/Vina/outputs/7JR8_VH7/7JR8_VH7.pdbqt 

>  <AUTHOR>
    GENERATED BY OPEN BABEL 3.2.1

>  <MASTER>
        0    0    0    0    0    0    0    0   31    0   31    0

$$$$
