../../databases/Vina/outputs/7VB8_STL/7VB8_STL1.pdb
 OpenBabel08242616453D

 20 21  0  0  0  0  0  0  0  0999 V2000
    1.3230   19.9210  -25.2890 C   0  0  0  0  0  0  0  0  0  0  0  0
    1.7620   18.6730  -25.6870 C   0  0  0  0  0  0  0  0  0  0  0  0
    2.2540   18.5060  -26.9810 C   0  0  0  0  0  0  0  0  0  0  0  0
    2.2970   19.5750  -27.8790 C   0  0  0  0  0  0  0  0  0  0  0  0
    1.8970   20.8450  -27.4450 C   0  0  0  0  0  0  0  0  0  0  0  0
    1.4100   21.0000  -26.1590 C   0  0  0  0  0  0  0  0  0  0  0  0
    1.8780   22.0230  -28.3260 C   0  0  0  0  0  0  0  0  0  0  0  0
    2.7050   22.2910  -29.3060 C   0  0  0  0  0  0  0  0  0  0  0  0
    2.6810   23.4620  -30.1830 C   0  0  0  0  0  0  0  0  0  0  0  0
    3.3750   24.6240  -29.8520 C   0  0  0  0  0  0  0  0  0  0  0  0
    3.3920   25.7190  -30.7040 C   0  0  0  0  0  0  0  0  0  0  0  0
    2.6510   25.7030  -31.8800 C   0  0  0  0  0  0  0  0  0  0  0  0
    1.9790   24.5550  -32.2360 C   0  0  0  0  0  0  0  0  0  0  0  0
    1.9920   23.4640  -31.3980 C   0  0  0  0  0  0  0  0  0  0  0  0
    2.6560   26.7790  -32.7280 O   0  0  0  0  0  0  0  0  0  0  0  0
    3.0810   27.5910  -32.4800 H   0  0  0  0  0  0  0  0  0  0  0  0
    2.5700   17.2250  -27.3830 O   0  0  0  0  0  0  0  0  0  0  0  0
    3.4890   16.9910  -27.4240 H   0  0  0  0  0  0  0  0  0  0  0  0
    0.8650   20.1570  -24.0020 O   0  0  0  0  0  0  0  0  0  0  0  0
   -0.0630   20.1960  -23.8000 H   0  0  0  0  0  0  0  0  0  0  0  0
  1  6  2  0  0  0  0
  1  2  1  0  0  0  0
  1 19  1  0  0  0  0
  2  3  2  0  0  0  0
  3  4  1  0  0  0  0
  3 17  1  0  0  0  0
  4  5  2  0  0  0  0
  5  7  1  0  0  0  0
  5  6  1  0  0  0  0
  7  8  2  0  0  0  0
  8  9  1  0  0  0  0
  9 14  2  0  0  0  0
  9 10  1  0  0  0  0
 10 11  2  0  0  0  0
 11 12  1  0  0  0  0
 12 15  1  0  0  0  0
 12 13  2  0  0  0  0
 13 14  1  0  0  0  0
 15 16  1  0  0  0  0
 17 18  1  0  0  0  0
 19 20  1  0  0  0  0
M  END
>  <MODEL>
1

>  <REMARK>
 VINA RESULT:    -8.503      0.000      0.000
 INTER + INTRA:         -10.550
 INTER:                 -10.243
 INTRA:                  -0.307
 UNBOUND:                -0.307
  5 active torsions:
  status: ('A' for Active; 'I' for Inactive)
    1  A    between atoms: C_1  and  O_19 
    2  A    between atoms: C_3  and  O_17 
    3  A    between atoms: C_5  and  C_7 
    4  A    between atoms: C_8  and  C_9 
    5  A    between atoms: C_12  and  O_15 

>  <COMPND>
    /home/daniil/Downloads/ml_docking_review/databases/Vina/outputs/7VB8_STL/7VB8_STL.pdbqt 

>  <AUTHOR>
    GENERATED BY OPEN BABEL 3.2.1

>  <MASTER>
        0    0    0    0    0    0    0    0   20    0   20    0

$$$$
