../../databases/Vina/outputs/7XQZ_FPF/7XQZ_FPF1.pdb
 OpenBabel08242616453D

 25 24  0  0  1  0  0  0  0  0999 V2000
  -18.5650   -0.8540  -18.6910 C   0  0  1  0  0  0  0  0  0  0  0  0
  -18.3880   -1.2220  -19.9840 F   0  0  0  0  0  0  0  0  0  0  0  0
  -17.7460   -1.2620  -17.7300 C   0  0  1  0  0  0  0  0  0  0  0  0
  -17.7150   -0.6430  -16.3700 C   0  0  0  0  0  0  0  0  0  0  0  0
  -16.8010   -2.4090  -17.9440 C   0  0  0  0  0  0  0  0  0  0  0  0
  -17.3700   -3.7360  -17.4990 C   0  0  0  0  0  0  0  0  0  0  0  0
  -18.5480   -4.1660  -18.3170 C   0  0  0  0  0  0  0  0  0  0  0  0
  -19.8400   -4.0690  -18.0200 C   0  0  1  0  0  0  0  0  0  0  0  0
  -20.3600   -3.8630  -16.6300 C   0  0  0  0  0  0  0  0  0  0  0  0
  -20.8880   -4.1470  -19.0940 C   0  0  0  0  0  0  0  0  0  0  0  0
  -21.6750   -5.4400  -19.1420 C   0  0  0  0  0  0  0  0  0  0  0  0
  -21.0540   -6.4550  -20.0420 C   0  0  0  0  0  0  0  0  0  0  0  0
  -20.0920   -7.3190  -19.7640 C   0  0  0  0  0  0  0  0  0  0  0  0
  -19.7630   -7.7430  -18.3720 C   0  0  0  0  0  0  0  0  0  0  0  0
  -19.2420   -7.9480  -20.8230 C   0  0  0  0  0  0  0  0  0  0  0  0
  -19.7480    0.0400  -18.4940 C   0  0  0  0  0  0  0  0  0  0  0  0
  -19.4640    1.2590  -19.1450 O   0  0  0  0  0  0  0  0  0  0  0  0
  -20.5010    2.4710  -19.0960 P   0  0  1  0  0  0  0  0  0  0  0  0
  -21.4810    2.2900  -17.9950 O   0  0  0  0  0  0  0  0  0  0  0  0
  -19.6110    3.6570  -19.1360 O   0  0  0  0  0  0  0  0  0  0  0  0
  -21.2390    2.2760  -20.5020 O   0  0  0  0  0  0  0  0  0  0  0  0
  -22.5270    2.8950  -21.2340 P   0  0  0  0  0  0  0  0  0  0  0  0
  -23.7120    2.2440  -20.6320 O   0  0  0  0  0  0  0  0  0  0  0  0
  -22.3740    2.5620  -22.6780 O   0  0  0  0  0  0  0  0  0  0  0  0
  -22.4630    4.3520  -20.9610 O   0  0  0  0  0  0  0  0  0  0  0  0
  1  2  1  6  0  0  0
  1 16  1  0  0  0  0
  1  3  1  0  0  0  0
  3  5  1  0  0  0  0
  3  4  1  1  0  0  0
  5  6  1  0  0  0  0
  6  7  1  0  0  0  0
  7  8  1  0  0  0  0
  8 10  1  0  0  0  0
  8  9  1  6  0  0  0
 10 11  1  0  0  0  0
 11 12  1  0  0  0  0
 12 13  1  0  0  0  0
 13 15  1  0  0  0  0
 13 14  1  0  0  0  0
 16 17  1  0  0  0  0
 17 18  1  0  0  0  0
 18 21  1  0  0  0  0
 18 20  2  1  0  0  0
 18 19  1  0  0  0  0
 21 22  1  0  0  0  0
 22 24  2  0  0  0  0
 22 25  1  0  0  0  0
 22 23  1  0  0  0  0
M  END
>  <MODEL>
1

>  <REMARK>
 VINA RESULT:   -11.177      0.000      0.000
 INTER + INTRA:         -20.118
 INTER:                 -18.364
 INTRA:                  -1.754
 UNBOUND:                -1.754
  11 active torsions:
  status: ('A' for Active; 'I' for Inactive)
    1  A    between atoms: C_1  and  C_3 
    2  A    between atoms: C_1  and  O_2 
    3  A    between atoms: O_2  and  P_18 
    4  A    between atoms: C_5  and  C_7 
    5  A    between atoms: C_7  and  C_8 
    6  A    between atoms: C_8  and  C_9 
    7  A    between atoms: C_10  and  C_12 
    8  A    between atoms: C_12  and  C_13 
    9  A    between atoms: C_13  and  C_14 
   10  A    between atoms: P_18  and  O_21 
   11  A    between atoms: O_21  and  P_22 

>  <COMPND>
    /home/daniil/Downloads/ml_docking_review/databases/Vina/outputs/7XQZ_FPF/7XQZ_FPF.pdbqt 

>  <AUTHOR>
    GENERATED BY OPEN BABEL 3.2.1

>  <MASTER>
        0    0    0    0    0    0    0    0   25    0   25    0

$$$$
