../../databases/Vina/outputs/7ZYS_KNR/7ZYS_KNR1.pdb
 OpenBabel08242616453D

 55 56  0  0  1  0  0  0  0  0999 V2000
    2.3610  -15.0230    4.2330 C   0  0  0  0  0  0  0  0  0  0  0  0
    1.7030  -14.0270    3.2730 C   0  0  1  0  0  0  0  0  0  0  0  0
   10.2930  -16.3250    2.6970 O   0  0  0  0  0  0  0  0  0  0  0  0
    7.0920  -13.0820    5.8580 C   0  0  2  0  0  0  0  0  0  0  0  0
    3.8930  -14.8940    7.1800 C   0  0  0  0  0  0  0  0  0  0  0  0
    2.7280  -15.6490    6.5750 C   0  0  0  0  0  0  0  0  0  0  0  0
    2.0730  -14.8740    5.5270 N   0  0  0  0  0  0  0  0  0  0  0  0
    1.3660  -14.1900    5.7940 H   0  0  0  0  0  0  0  0  0  0  0  0
    4.9500  -14.4720    6.1730 C   0  0  0  0  0  0  0  0  0  0  0  0
    3.1410  -15.8780    3.8120 O   0  0  0  0  0  0  0  0  0  0  0  0
    6.0640  -13.6790    6.8200 C   0  0  0  0  0  0  0  0  0  0  0  0
    1.6020  -11.3300    4.1800 O   0  0  0  0  0  0  0  0  0  0  0  0
    2.6350  -12.9470    2.9780 N   0  0  0  0  0  0  0  0  0  0  0  0
    3.4600  -13.1680    2.4210 H   0  0  0  0  0  0  0  0  0  0  0  0
    7.7780  -14.2040    5.0690 C   0  0  0  0  0  0  0  0  0  0  0  0
    7.3100  -14.6050    3.9990 O   0  0  0  0  0  0  0  0  0  0  0  0
    2.4750  -11.6820    3.3900 C   0  0  0  0  0  0  0  0  0  0  0  0
    3.4490  -10.6510    2.8190 C   0  0  1  0  0  0  0  0  0  0  0  0
    5.7270  -11.3400    2.2080 C   0  0  0  0  0  0  0  0  0  0  0  0
    6.5890  -11.7970    1.0450 C   0  0  0  0  0  0  0  0  0  0  0  0
    8.0710  -11.5840    1.2390 C   0  0  0  0  0  0  0  0  0  0  0  0
    8.8840  -12.6430    1.6260 C   0  0  0  0  0  0  0  0  0  0  0  0
   10.2610  -12.4860    1.8050 C   0  0  0  0  0  0  0  0  0  0  0  0
   11.1010  -13.6580    2.2270 C   0  0  0  0  0  0  0  0  0  0  0  0
   10.1600  -15.4800    3.5830 C   0  0  0  0  0  0  0  0  0  0  0  0
    9.5300  -15.8410    4.9180 C   0  0  0  0  0  0  0  0  0  0  0  0
   10.8060  -11.2270    1.5960 C   0  0  0  0  0  0  0  0  0  0  0  0
   10.0140  -10.1570    1.2160 C   0  0  0  0  0  0  0  0  0  0  0  0
    8.6510  -10.3420    1.0350 C   0  0  0  0  0  0  0  0  0  0  0  0
    4.4290  -11.2280    1.9160 N   0  0  0  0  0  0  0  0  0  0  0  0
    4.1080  -11.5650    1.0080 H   0  0  0  0  0  0  0  0  0  0  0  0
   10.5800  -14.2240    3.4640 N   0  0  0  0  0  0  0  0  0  0  0  0
   10.5350  -13.6220    4.2860 H   0  0  0  0  0  0  0  0  0  0  0  0
    8.8830  -14.7320    5.5900 N   0  0  0  0  0  0  0  0  0  0  0  0
    9.2720  -14.3580    6.4550 H   0  0  0  0  0  0  0  0  0  0  0  0
    6.1870  -11.1110    3.3280 O   0  0  0  0  0  0  0  0  0  0  0  0
    2.6850   -9.5380    2.1060 C   0  0  0  0  0  0  0  0  0  0  0  0
    2.4140   -9.8840    0.6430 C   0  0  0  0  0  0  0  0  0  0  0  0
    0.9450  -10.0410    0.2830 C   0  0  0  0  0  0  0  0  0  0  0  0
    0.0140   -9.5480    1.3700 C   0  0  0  0  0  0  0  0  0  0  0  0
   -0.1550   -8.0770    1.3050 N   0  0  0  0  0  4  0  0  0  0  0  0
    0.6950   -7.5890    1.5860 H   0  0  0  0  0  0  0  0  0  0  0  0
   -0.2120   -7.7490    0.3400 H   0  0  0  0  0  0  0  0  0  0  0  0
   -0.9610   -7.7740    1.8530 H   0  0  0  0  0  0  0  0  0  0  0  0
    1.2830  -14.7310    1.9800 C   0  0  0  0  0  0  0  0  0  0  0  0
    0.5050  -13.8310    1.0280 C   0  0  0  0  0  0  0  0  0  0  0  0
   -0.6860  -13.1470    1.7260 C   0  0  0  0  0  0  0  0  0  0  0  0
   -1.8280  -12.8250    0.7900 C   0  0  0  0  0  0  0  0  0  0  0  0
    8.0170  -12.2690    6.6320 N   0  0  0  0  0  0  0  0  0  0  0  0
    9.0540  -11.4870    6.1240 C   0  0  0  0  0  0  0  0  0  0  0  0
    9.1090  -11.3620    4.7500 N   0  0  0  0  0  0  0  0  0  0  0  0
    9.8830  -10.9340    6.9390 N   0  0  0  0  0  0  0  0  0  0  0  0
   10.6420  -10.3620    6.5670 H   0  0  0  0  0  0  0  0  0  0  0  0
    9.8430  -11.0250    7.9540 H   0  0  0  0  0  0  0  0  0  0  0  0
    7.8950  -12.2700    7.6450 H   0  0  0  0  0  0  0  0  0  0  0  0
  1  2  1  0  0  0  0
  1 10  2  0  0  0  0
  1  7  1  0  0  0  0
  2 45  1  6  0  0  0
  2 13  1  0  0  0  0
  3 25  2  0  0  0  0
  4 15  1  0  0  0  0
  4 49  1  1  0  0  0
  4 11  1  0  0  0  0
  5  9  1  0  0  0  0
  5  6  1  0  0  0  0
  6  7  1  0  0  0  0
  7  8  1  0  0  0  0
  9 11  1  0  0  0  0
 12 17  2  0  0  0  0
 13 14  1  0  0  0  0
 13 17  1  0  0  0  0
 15 16  2  0  0  0  0
 15 34  1  0  0  0  0
 17 18  1  0  0  0  0
 18 30  1  0  0  0  0
 18 37  1  6  0  0  0
 19 20  1  0  0  0  0
 19 30  1  0  0  0  0
 19 36  2  0  0  0  0
 20 21  1  0  0  0  0
 21 29  2  0  0  0  0
 21 22  1  0  0  0  0
 22 23  2  0  0  0  0
 23 27  1  0  0  0  0
 23 24  1  0  0  0  0
 24 32  1  0  0  0  0
 25 32  1  0  0  0  0
 25 26  1  0  0  0  0
 26 34  1  0  0  0  0
 27 28  2  0  0  0  0
 28 29  1  0  0  0  0
 30 31  1  0  0  0  0
 32 33  1  0  0  0  0
 34 35  1  0  0  0  0
 37 38  1  0  0  0  0
 38 39  1  0  0  0  0
 39 40  1  0  0  0  0
 40 41  1  0  0  0  0
 41 43  1  0  0  0  0
 41 42  1  0  0  0  0
 41 44  1  0  0  0  0
 45 46  1  0  0  0  0
 46 47  1  0  0  0  0
 47 48  1  0  0  0  0
 49 50  1  0  0  0  0
 49 55  1  0  0  0  0
 50 51  2  0  0  0  0
 50 52  1  0  0  0  0
 52 53  1  0  0  0  0
 52 54  1  0  0  0  0
M  END
>  <MODEL>
1

>  <REMARK>
 VINA RESULT:    -8.915      0.000      0.000
 INTER + INTRA:         -14.651
 INTER:                 -13.345
 INTRA:                  -1.305
 UNBOUND:                -1.305
  9 active torsions:
  status: ('A' for Active; 'I' for Inactive)
    1  A    between atoms: C_3  and  C_7 
    2  A    between atoms: C_7  and  C_25 
    3  A    between atoms: C_9  and  N_21 
       I    between atoms: C_18  and  N_21 
    4  A    between atoms: C_25  and  C_26 
    5  A    between atoms: C_29  and  C_30 
    6  A    between atoms: C_30  and  C_31 
    7  A    between atoms: C_31  and  C_32 
    8  A    between atoms: C_32  and  C_33 
    9  A    between atoms: C_33  and  N_45 

>  <COMPND>
    /home/daniil/Downloads/ml_docking_review/databases/Vina/outputs/7ZYS_KNR/7ZYS_KNR.pdbqt 

>  <AUTHOR>
    GENERATED BY OPEN BABEL 3.2.1

>  <MASTER>
        0    0    0    0    0    0    0    0   55    0   55    0

$$$$
