../../databases/Vina/outputs/6Y7L_QMG/6Y7L_QMG1.pdb
 OpenBabel08242616453D

 27 30  0  0  0  0  0  0  0  0999 V2000
  129.2410    1.2610   36.3900 C   0  0  0  0  0  0  0  0  0  0  0  0
  129.2630   -1.1290   36.5550 C   0  0  0  0  0  0  0  0  0  0  0  0
  127.8930   -1.1720   36.2440 C   0  0  0  0  0  0  0  0  0  0  0  0
  127.2040    0.0250   36.0330 C   0  0  0  0  0  0  0  0  0  0  0  0
  127.8560    1.2780   36.1100 C   0  0  0  0  0  0  0  0  0  0  0  0
  129.9550    0.0660   36.6070 C   0  0  0  0  0  0  0  0  0  0  0  0
  129.9840   -2.3100   36.8310 C   0  0  0  0  0  0  0  0  0  0  0  0
  127.1720   -2.3760   36.0990 C   0  0  0  0  0  0  0  0  0  0  0  0
  127.5070   -3.4220   35.2830 C   0  0  0  0  0  0  0  0  0  0  0  0
  126.5950   -4.4220   35.4380 C   0  0  0  0  0  0  0  0  0  0  0  0
  125.6790   -3.9490   36.3550 N   0  0  0  0  0  0  0  0  0  0  0  0
  124.4910   -4.5310   36.8430 C   0  0  0  0  0  0  0  0  0  0  0  0
  126.0390   -2.6950   36.7050 C   0  0  0  0  0  0  0  0  0  0  0  0
  123.6830   -3.9060   37.7690 C   0  0  0  0  0  0  0  0  0  0  0  0
  124.1560   -2.5920   38.1180 C   0  0  0  0  0  0  0  0  0  0  0  0
  125.2690   -2.0510   37.6170 N   0  0  0  0  0  0  0  0  0  0  0  0
  125.5480   -1.1210   37.9300 H   0  0  0  0  0  0  0  0  0  0  0  0
  126.5440   -5.6760   34.8060 C   0  0  0  0  0  0  0  0  0  0  0  0
  125.4620   -6.2510   34.4650 O   0  0  0  0  0  0  0  0  0  0  0  0
  127.8720   -6.4170   34.6330 C   0  0  0  0  0  0  0  0  0  0  0  0
  127.2090    2.5330   35.9290 C   0  0  0  0  0  0  0  0  0  0  0  0
  126.1630    2.8860   36.6990 N   0  0  0  0  0  0  0  0  0  0  0  0
  125.8400    2.2410   37.4200 H   0  0  0  0  0  0  0  0  0  0  0  0
  127.5110    3.1960   34.9340 O   0  0  0  0  0  0  0  0  0  0  0  0
  125.4650    4.1850   36.5320 C   0  0  0  0  0  0  0  0  0  0  0  0
  125.7370    5.1710   37.5200 C   0  0  0  0  0  0  0  0  0  0  0  0
  124.4230    4.6130   37.4700 C   0  0  0  0  0  0  0  0  0  0  0  0
  1  5  2  0  0  0  0
  1  6  1  0  0  0  0
  2  3  1  0  0  0  0
  2  6  2  0  0  0  0
  2  7  1  0  0  0  0
  3  4  2  0  0  0  0
  3  8  1  0  0  0  0
  4  5  1  0  0  0  0
  5 21  1  0  0  0  0
  8  9  1  0  0  0  0
  8 13  2  0  0  0  0
  9 10  2  0  0  0  0
 10 18  1  0  0  0  0
 10 11  1  0  0  0  0
 11 13  1  0  0  0  0
 11 12  1  0  0  0  0
 12 14  1  0  0  0  0
 13 16  1  0  0  0  0
 14 15  2  0  0  0  0
 15 16  1  0  0  0  0
 16 17  1  0  0  0  0
 18 19  2  0  0  0  0
 18 20  1  0  0  0  0
 21 24  2  0  0  0  0
 21 22  1  0  0  0  0
 22 25  1  0  0  0  0
 22 23  1  0  0  0  0
 25 27  1  0  0  0  0
 25 26  1  0  0  0  0
 26 27  1  0  0  0  0
M  END
>  <MODEL>
1

>  <REMARK>
 VINA RESULT:   -10.021      0.000      0.000
 INTER + INTRA:         -12.518
 INTER:                 -12.365
 INTRA:                  -0.154
 UNBOUND:                -0.154
  4 active torsions:
  status: ('A' for Active; 'I' for Inactive)
    1  A    between atoms: C_6  and  C_7 
    2  A    between atoms: C_9  and  C_10 
    3  A    between atoms: C_12  and  C_13 
       I    between atoms: C_13  and  N_21 
    4  A    between atoms: C_14  and  N_21 

>  <COMPND>
    /home/daniil/Downloads/ml_docking_review/databases/Vina/outputs/6Y7L_QMG/6Y7L_QMG.pdbqt 

>  <AUTHOR>
    GENERATED BY OPEN BABEL 3.2.1

>  <MASTER>
        0    0    0    0    0    0    0    0   27    0   27    0

$$$$
