../../databases/Vina/outputs/7PL1_SFG/7PL1_SFG1.pdb
 OpenBabel08242611493D

 38 40  0  0  1  0  0  0  0  0999 V2000
   44.7390  -18.2350   -8.4930 C   0  0  1  0  0  0  0  0  0  0  0  0
   44.8260  -17.0370   -7.9370 O   0  0  0  0  0  0  0  0  0  0  0  0
   44.1150  -18.0260   -9.8930 C   0  0  2  0  0  0  0  0  0  0  0  0
   44.0250  -16.4920   -9.9860 C   0  0  2  0  0  0  0  0  0  0  0  0
   43.8280  -16.0910   -8.7420 C   0  0  2  0  0  0  0  0  0  0  0  0
   46.1580  -18.8630   -8.5760 C   0  0  0  0  0  0  0  0  0  0  0  0
   46.3950  -19.9480   -7.5230 C   0  0  1  0  0  0  0  0  0  0  0  0
   46.0210  -19.3980   -6.2200 N   0  0  0  0  0  4  0  0  0  0  0  0
   45.0220  -19.2060   -6.1440 H   0  0  0  0  0  0  0  0  0  0  0  0
   46.0840  -20.0840   -5.4680 H   0  0  0  0  0  0  0  0  0  0  0  0
   46.5950  -18.5720   -6.0510 H   0  0  0  0  0  0  0  0  0  0  0  0
   45.5140  -21.1610   -7.8190 C   0  0  0  0  0  0  0  0  0  0  0  0
   44.6320  -21.5090   -6.6130 C   0  0  0  0  0  0  0  0  0  0  0  0
   44.9130  -22.9390   -6.1260 C   0  0  1  0  0  0  0  0  0  0  0  0
   44.4180  -23.9500   -7.1610 C   0  0  0  0  0  0  0  0  0  0  0  0
   43.2200  -23.9030   -7.5480 O   0  0  0  0  0  0  0  0  0  0  0  0
   45.1770  -24.8430   -7.6280 O   0  0  0  0  0  0  0  0  0  0  0  0
   46.3390  -23.1290   -5.8510 N   0  0  0  0  0  4  0  0  0  0  0  0
   46.5070  -23.3540   -4.8700 H   0  0  0  0  0  0  0  0  0  0  0  0
   46.6910  -23.9900   -6.2690 H   0  0  0  0  0  0  0  0  0  0  0  0
   46.8800  -22.3180   -6.1500 H   0  0  0  0  0  0  0  0  0  0  0  0
   42.8840  -18.6280   -9.9590 O   0  0  0  0  0  0  0  0  0  0  0  0
   42.7990  -19.3480   -9.3450 H   0  0  0  0  0  0  0  0  0  0  0  0
   42.9190  -16.0910  -10.8950 O   0  0  0  0  0  0  0  0  0  0  0  0
   42.3840  -15.3930  -10.5320 H   0  0  0  0  0  0  0  0  0  0  0  0
   44.2590  -14.7310   -8.5130 N   0  0  1  0  0  0  0  0  0  0  0  0
   43.5020  -13.8520   -7.8270 C   0  0  2  0  0  0  0  0  0  0  0  0
   42.2870  -13.9420   -7.2360 N   0  0  0  0  0  0  0  0  0  0  0  0
   44.1700  -12.6940   -7.7870 C   0  0  0  0  0  0  0  0  0  0  0  0
   41.7600  -12.8630   -6.6090 C   0  0  0  0  0  0  0  0  0  0  0  0
   41.7700  -14.8220   -7.2620 H   0  0  0  0  0  0  0  0  0  0  0  0
   42.4330  -11.6860   -6.5810 N   0  0  0  0  0  0  0  0  0  0  0  0
   43.6260  -11.6030   -7.1530 C   0  0  0  0  0  0  0  0  0  0  0  0
   42.0240  -10.8710   -6.1240 H   0  0  0  0  0  0  0  0  0  0  0  0
   44.1990  -10.2860   -7.0200 N   0  0  0  0  0  0  0  0  0  0  0  0
   45.3400  -12.8420   -8.4390 N   0  0  0  0  0  0  0  0  0  0  0  0
   45.3900  -14.1000   -8.8800 C   0  0  0  0  0  0  0  0  0  0  0  0
   46.0540  -12.1250   -8.5710 H   0  0  0  0  0  0  0  0  0  0  0  0
  1  3  1  0  0  0  0
  1  6  1  6  0  0  0
  1  2  1  0  0  0  0
  3  4  1  0  0  0  0
  3 22  1  1  0  0  0
  4 24  1  6  0  0  0
  4  5  1  0  0  0  0
  5  2  1  1  0  0  0
  5 26  1  0  0  0  0
  7  6  1  6  0  0  0
  7 12  1  0  0  0  0
  7  8  1  0  0  0  0
  8  9  1  0  0  0  0
  8 11  1  0  0  0  0
  8 10  1  0  0  0  0
 12 13  1  0  0  0  0
 14 13  1  6  0  0  0
 14 15  1  0  0  0  0
 14 18  1  0  0  0  0
 15 17  2  0  0  0  0
 15 16  1  0  0  0  0
 18 20  1  0  0  0  0
 18 21  1  0  0  0  0
 18 19  1  0  0  0  0
 22 23  1  0  0  0  0
 24 25  1  0  0  0  0
 26 37  1  1  0  0  0
 26 27  1  0  0  0  0
 27 29  1  6  0  0  0
 27 28  1  0  0  0  0
 28 31  1  0  0  0  0
 28 30  1  0  0  0  0
 29 36  1  0  0  0  0
 29 33  2  0  0  0  0
 30 32  1  0  0  0  0
 32 33  1  0  0  0  0
 32 34  1  0  0  0  0
 33 35  1  0  0  0  0
 36 37  1  0  0  0  0
 36 38  1  0  0  0  0
M  END
>  <MODEL>
1

>  <REMARK>
 VINA RESULT:    -7.456      0.000      0.000
 INTER + INTRA:         -12.498
 INTER:                 -11.378
 INTRA:                  -1.119
 UNBOUND:                -1.119
  11 active torsions:
  status: ('A' for Active; 'I' for Inactive)
    1  A    between atoms: N_1  and  CA_5 
    2  A    between atoms: CA_5  and  C_9 
    3  A    between atoms: CA_5  and  C_6 
    4  A    between atoms: C_9  and  C_10 
    5  A    between atoms: C_10  and  C_11 
    6  A    between atoms: C_11  and  C_16 
    7  A    between atoms: C_11  and  N_12 
    8  A    between atoms: C_16  and  C_17 
    9  A    between atoms: C_19  and  O_20 
   10  A    between atoms: C_22  and  O_23 
   11  A    between atoms: C_25  and  N_26 

>  <COMPND>
    /home/daniil/Downloads/ml_docking_review/databases/Vina/outputs/7PL1_SFG/7PL1_SFG.pdbqt 

>  <AUTHOR>
    GENERATED BY OPEN BABEL 3.2.1

>  <MASTER>
        0    0    0    0    0    0    0    0   38    0   38    0

$$$$
