../../databases/Vina/outputs/7U3J_L6U/7U3J_L6U1.pdb
 OpenBabel08242616453D

 43 45  0  0  1  0  0  0  0  0999 V2000
   13.9580    4.2420   -6.2010 C   0  0  1  0  0  0  0  0  0  0  0  0
   14.4220    4.5550   -4.8430 C   0  0  0  0  0  0  0  0  0  0  0  0
   13.8920    5.5160   -3.9660 C   0  0  0  0  0  0  0  0  0  0  0  0
   14.5140    5.6200   -2.6690 C   0  0  0  0  0  0  0  0  0  0  0  0
   15.5370    4.6810   -2.4440 C   0  0  0  0  0  0  0  0  0  0  0  0
   15.6950    3.7310   -3.9230 S   0  0  0  0  0  0  0  0  0  0  0  0
   12.5440    4.4380   -6.3690 N   0  0  0  0  0  0  0  0  0  0  0  0
   11.5860    3.6000   -5.8530 C   0  0  0  0  0  0  0  0  0  0  0  0
   11.9750    2.6280   -5.1660 O   0  0  0  0  0  0  0  0  0  0  0  0
   12.2340    5.2480   -6.9050 H   0  0  0  0  0  0  0  0  0  0  0  0
   10.0850    3.8120   -6.0300 C   0  0  0  0  0  0  0  0  0  0  0  0
    9.3930    4.1570   -4.7500 N   0  0  0  0  0  4  0  0  0  0  0  0
    8.4030    4.3410   -4.9120 H   0  0  0  0  0  0  0  0  0  0  0  0
    9.3160    3.3370   -4.1480 H   0  0  0  0  0  0  0  0  0  0  0  0
   10.0620    5.3460   -3.9890 C   0  0  0  0  0  0  0  0  0  0  0  0
    9.6330    6.6610   -4.6320 C   0  0  0  0  0  0  0  0  0  0  0  0
    8.3310    7.1960   -4.4800 C   0  0  0  0  0  0  0  0  0  0  0  0
    7.9370    8.4000   -5.0840 C   0  0  0  0  0  0  0  0  0  0  0  0
    8.8440    9.0790   -5.9100 C   0  0  0  0  0  0  0  0  0  0  0  0
   10.1570    8.5930   -6.1160 C   0  0  0  0  0  0  0  0  0  0  0  0
   10.5380    7.3640   -5.4710 C   0  0  0  0  0  0  0  0  0  0  0  0
    7.4330    6.5240   -3.6290 O   0  0  0  0  0  0  0  0  0  0  0  0
    6.2030    7.1590   -3.1760 C   0  0  0  0  0  0  0  0  0  0  0  0
    8.4170   10.2690   -6.5370 O   0  0  0  0  0  0  0  0  0  0  0  0
    9.3340   10.8280   -7.5270 C   0  0  0  0  0  0  0  0  0  0  0  0
   14.6620    5.3080   -7.0470 C   0  0  0  0  0  0  0  0  0  0  0  0
   15.7600    4.9850   -7.7650 N   0  0  0  0  0  0  0  0  0  0  0  0
   16.0650    4.0130   -7.7750 H   0  0  0  0  0  0  0  0  0  0  0  0
   14.2290    6.4910   -7.0780 O   0  0  0  0  0  0  0  0  0  0  0  0
   16.5200    5.9550   -8.5190 C   0  0  1  0  0  0  0  0  0  0  0  0
   18.0670    5.7440   -8.1980 C   0  0  0  0  0  0  0  0  0  0  0  0
   18.3420    5.7500   -6.7160 C   0  0  0  0  0  0  0  0  0  0  0  0
   17.9970    7.1150   -6.0590 C   0  0  0  0  0  0  0  0  0  0  0  0
   18.6040    8.3060   -6.4750 C   0  0  0  0  0  0  0  0  0  0  0  0
   18.2760    9.5340   -5.8750 C   0  0  0  0  0  0  0  0  0  0  0  0
   17.3520    9.5840   -4.8090 C   0  0  0  0  0  0  0  0  0  0  0  0
   16.7500    8.3920   -4.3670 C   0  0  0  0  0  0  0  0  0  0  0  0
   17.0780    7.1710   -4.9820 C   0  0  0  0  0  0  0  0  0  0  0  0
   16.2720    5.9410   -9.9710 C   0  0  0  0  0  0  0  0  0  0  0  0
   15.9950    4.8750  -10.5490 O   0  0  0  0  0  0  0  0  0  0  0  0
   16.3370    7.1570  -10.7360 N   0  0  0  0  0  0  0  0  0  0  0  0
   16.0820    7.1560  -12.1760 C   0  0  0  0  0  0  0  0  0  0  0  0
   16.5640    8.0340  -10.2670 H   0  0  0  0  0  0  0  0  0  0  0  0
  1 26  1  6  0  0  0
  1  7  1  0  0  0  0
  1  2  1  0  0  0  0
  2  3  2  0  0  0  0
  2  6  1  0  0  0  0
  3  4  1  0  0  0  0
  4  5  2  0  0  0  0
  5  6  1  0  0  0  0
  7 10  1  0  0  0  0
  7  8  1  0  0  0  0
  8 11  1  0  0  0  0
  8  9  2  0  0  0  0
 11 12  1  0  0  0  0
 12 13  1  0  0  0  0
 12 14  1  0  0  0  0
 12 15  1  0  0  0  0
 15 16  1  0  0  0  0
 16 21  2  0  0  0  0
 16 17  1  0  0  0  0
 17 18  2  0  0  0  0
 17 22  1  0  0  0  0
 18 19  1  0  0  0  0
 19 24  1  0  0  0  0
 19 20  2  0  0  0  0
 20 21  1  0  0  0  0
 22 23  1  0  0  0  0
 24 25  1  0  0  0  0
 26 27  1  0  0  0  0
 26 29  2  0  0  0  0
 27 30  1  0  0  0  0
 27 28  1  0  0  0  0
 30 39  1  0  0  0  0
 30 31  1  6  0  0  0
 31 32  1  0  0  0  0
 32 33  1  0  0  0  0
 33 34  2  0  0  0  0
 33 38  1  0  0  0  0
 34 35  1  0  0  0  0
 35 36  2  0  0  0  0
 36 37  1  0  0  0  0
 37 38  2  0  0  0  0
 39 41  1  0  0  0  0
 39 40  2  0  0  0  0
 41 42  1  0  0  0  0
 41 43  1  0  0  0  0
M  END
>  <MODEL>
1

>  <REMARK>
 VINA RESULT:   -10.231      0.000      0.000
 INTER + INTRA:         -21.158
 INTER:                 -18.604
 INTRA:                  -2.554
 UNBOUND:                -2.554
  14 active torsions:
  status: ('A' for Active; 'I' for Inactive)
       I    between atoms: C_2  and  N_29 
    1  A    between atoms: C_2  and  C_3 
    2  A    between atoms: C_3  and  N_31 
    3  A    between atoms: C_3  and  C_4 
    4  A    between atoms: C_4  and  C_5 
    5  A    between atoms: C_5  and  C_6 
       I    between atoms: C_12  and  N_31 
    6  A    between atoms: C_12  and  C_13 
    7  A    between atoms: C_13  and  C_25 
    8  A    between atoms: C_13  and  N_33 
       I    between atoms: C_14  and  N_33 
    9  A    between atoms: C_14  and  C_15 
   10  A    between atoms: C_15  and  N_35 
   11  A    between atoms: C_16  and  N_35 
   12  A    between atoms: C_16  and  C_17 
   13  A    between atoms: C_20  and  O_41 
   14  A    between atoms: C_23  and  O_42 

>  <COMPND>
    /home/daniil/Downloads/ml_docking_review/databases/Vina/outputs/7U3J_L6U/7U3J_L6U.pdbqt 

>  <AUTHOR>
    GENERATED BY OPEN BABEL 3.2.1

>  <MASTER>
        0    0    0    0    0    0    0    0   43    0   43    0

$$$$
