../../databases/Vina/outputs/8G6P_API/8G6P_API1.pdb
 OpenBabel08242611493D

 19 18  0  0  1  0  0  0  0  0999 V2000
  -34.1190   14.1310  -15.0810 C   0  0  0  0  0  0  0  0  0  0  0  0
  -35.0750   14.3130  -16.2660 C   0  0  0  0  0  0  0  0  0  0  0  0
  -35.6260   15.7380  -16.3500 C   0  0  1  0  0  0  0  0  0  0  0  0
  -35.5770   16.3950  -15.0450 N   0  0  0  0  0  4  0  0  0  0  0  0
  -36.0280   15.8320  -14.3230 H   0  0  0  0  0  0  0  0  0  0  0  0
  -34.6310   16.4070  -14.6650 H   0  0  0  0  0  0  0  0  0  0  0  0
  -35.9750   17.3340  -15.0950 H   0  0  0  0  0  0  0  0  0  0  0  0
  -34.7900   16.5250  -17.3470 C   0  0  0  0  0  0  0  0  0  0  0  0
  -33.9650   17.3730  -16.9290 O   0  0  0  0  0  0  0  0  0  0  0  0
  -34.9310   16.3090  -18.5800 O   0  0  0  0  0  0  0  0  0  0  0  0
  -32.8010   13.5360  -15.5960 C   0  0  0  0  0  0  0  0  0  0  0  0
  -31.6070   14.4580  -15.3030 C   0  0  2  0  0  0  0  0  0  0  0  0
  -31.6440   15.6280  -16.1640 N   0  0  0  0  0  4  0  0  0  0  0  0
  -32.0540   15.4180  -17.0730 H   0  0  0  0  0  0  0  0  0  0  0  0
  -32.3280   16.3140  -15.8430 H   0  0  0  0  0  0  0  0  0  0  0  0
  -30.7130   16.0350  -16.2540 H   0  0  0  0  0  0  0  0  0  0  0  0
  -30.2780   13.7430  -15.5410 C   0  0  0  0  0  0  0  0  0  0  0  0
  -30.1420   12.9330  -16.4940 O   0  0  0  0  0  0  0  0  0  0  0  0
  -29.3040   13.9800  -14.7860 O   0  0  0  0  0  0  0  0  0  0  0  0
  1  2  1  0  0  0  0
  1 11  1  0  0  0  0
  3  2  1  1  0  0  0
  3  8  1  0  0  0  0
  3  4  1  0  0  0  0
  4  7  1  0  0  0  0
  4  6  1  0  0  0  0
  4  5  1  0  0  0  0
  8 10  2  0  0  0  0
  8  9  1  0  0  0  0
 12 11  1  6  0  0  0
 12 13  1  0  0  0  0
 12 17  1  0  0  0  0
 13 14  1  0  0  0  0
 13 16  1  0  0  0  0
 13 15  1  0  0  0  0
 17 18  2  0  0  0  0
 17 19  1  0  0  0  0
M  END
>  <MODEL>
1

>  <REMARK>
 VINA RESULT:    -5.116      0.000      0.000
 INTER + INTRA:          -7.749
 INTER:                  -7.210
 INTRA:                  -0.539
 UNBOUND:                -0.539
  8 active torsions:
  status: ('A' for Active; 'I' for Inactive)
    1  A    between atoms: C_1  and  CA_2 
    2  A    between atoms: CA_2  and  C_3 
    3  A    between atoms: CA_2  and  N_12 
    4  A    between atoms: C_3  and  C_4 
    5  A    between atoms: C_4  and  C_5 
    6  A    between atoms: C_5  and  CA_6 
    7  A    between atoms: CA_6  and  N_16 
    8  A    between atoms: CA_6  and  C_7 

>  <COMPND>
    /home/daniil/Downloads/ml_docking_review/databases/Vina/outputs/8G6P_API/8G6P_API.pdbqt 

>  <AUTHOR>
    GENERATED BY OPEN BABEL 3.2.1

>  <MASTER>
        0    0    0    0    0    0    0    0   19    0   19    0

$$$$
