../../databases/Vina/outputs/7M31_TDR/7M31_TDR1.pdb
 OpenBabel08242616453D

 11 11  0  0  0  0  0  0  0  0999 V2000
   -2.0650  103.9080   25.5760 N   0  0  0  0  0  0  0  0  0  0  0  0
   -1.8780  104.1530   24.6040 H   0  0  0  0  0  0  0  0  0  0  0  0
   -1.2890  102.8710   26.2290 C   0  0  0  0  0  0  0  0  0  0  0  0
   -0.4340  102.3020   25.6380 O   0  0  0  0  0  0  0  0  0  0  0  0
   -1.5640  102.5320   27.5780 N   0  0  0  0  0  0  0  0  0  0  0  0
   -1.0230  101.7970   28.0340 H   0  0  0  0  0  0  0  0  0  0  0  0
   -2.5790  103.2030   28.2980 C   0  0  0  0  0  0  0  0  0  0  0  0
   -2.7870  102.9080   29.4280 O   0  0  0  0  0  0  0  0  0  0  0  0
   -3.3850  104.2980   27.6150 C   0  0  0  0  0  0  0  0  0  0  0  0
   -4.4910  105.0270   28.3740 C   0  0  0  0  0  0  0  0  0  0  0  0
   -3.1340  104.6100   26.3290 C   0  0  0  0  0  0  0  0  0  0  0  0
  1  2  1  0  0  0  0
  1  3  1  0  0  0  0
  1 11  1  0  0  0  0
  3  4  2  0  0  0  0
  3  5  1  0  0  0  0
  5  6  1  0  0  0  0
  5  7  1  0  0  0  0
  7  9  1  0  0  0  0
  7  8  2  0  0  0  0
  9 11  2  0  0  0  0
  9 10  1  0  0  0  0
M  END
>  <MODEL>
1

>  <REMARK>
 VINA RESULT:    -6.969      0.000      0.000
 INTER + INTRA:          -6.969
 INTER:                  -6.969
 INTRA:                   0.000
 UNBOUND:                 0.000
  0 active torsions:
  status: ('A' for Active; 'I' for Inactive)

>  <COMPND>
    /home/daniil/Downloads/ml_docking_review/databases/Vina/outputs/7M31_TDR/7M31_TDR.pdbqt 

>  <AUTHOR>
    GENERATED BY OPEN BABEL 3.2.1

>  <MASTER>
        0    0    0    0    0    0    0    0   11    0   11    0

$$$$
