../../databases/Vina/outputs/7T3F_EM0/7T3F_EM01.pdb
 OpenBabel08242616453D

 26 28  0  0  0  0  0  0  0  0999 V2000
   46.6870   38.6350   76.3410 C   0  0  0  0  0  0  0  0  0  0  0  0
   47.7590   39.4720   76.6520 C   0  0  0  0  0  0  0  0  0  0  0  0
   47.6230   40.5250   77.5480 C   0  0  0  0  0  0  0  0  0  0  0  0
   48.7660   41.3980   77.8460 C   0  0  0  0  0  0  0  0  0  0  0  0
   48.4950   42.4000   78.8750 N   0  0  0  0  0  0  0  0  0  0  0  0
   49.6040   43.2520   79.2880 C   0  0  0  0  0  0  0  0  0  0  0  0
   47.2300   42.5970   79.4360 C   0  0  0  0  0  0  0  0  0  0  0  0
   47.0520   43.4840   80.2760 O   0  0  0  0  0  0  0  0  0  0  0  0
   46.2200   41.8230   79.0350 N   0  0  0  0  0  0  0  0  0  0  0  0
   45.2840   42.0270   79.3860 H   0  0  0  0  0  0  0  0  0  0  0  0
   46.3800   40.7660   78.1750 C   0  0  0  0  0  0  0  0  0  0  0  0
   45.3020   39.9220   77.9040 C   0  0  0  0  0  0  0  0  0  0  0  0
   45.4710   38.8590   77.0070 C   0  0  0  0  0  0  0  0  0  0  0  0
   46.8000   37.5170   75.4790 N   0  0  0  0  0  0  0  0  0  0  0  0
   46.9050   36.5910   75.8940 H   0  0  0  0  0  0  0  0  0  0  0  0
   46.7700   37.6410   73.9090 S   0  0  0  0  0  0  0  0  0  0  0  0
   46.5910   36.3030   73.3810 O   0  0  0  0  0  0  0  0  0  0  0  0
   45.8670   38.6510   73.4650 O   0  0  0  0  0  0  0  0  0  0  0  0
   48.2700   38.1040   73.4670 C   0  0  0  0  0  0  0  0  0  0  0  0
   49.4470   37.3730   73.7390 C   0  0  0  0  0  0  0  0  0  0  0  0
   50.7400   37.7280   73.3150 C   0  0  0  0  0  0  0  0  0  0  0  0
   51.9440   36.9180   73.7310 C   0  0  0  0  0  0  0  0  0  0  0  0
   50.8820   38.8440   72.5350 C   0  0  0  0  0  0  0  0  0  0  0  0
   49.7940   39.6060   72.1720 C   0  0  0  0  0  0  0  0  0  0  0  0
   52.1240   39.2160   72.1580 F   0  0  0  0  0  0  0  0  0  0  0  0
   48.5180   39.2080   72.6030 C   0  0  0  0  0  0  0  0  0  0  0  0
  1 14  1  0  0  0  0
  1  2  2  0  0  0  0
  1 13  1  0  0  0  0
  2  3  1  0  0  0  0
  3  4  1  0  0  0  0
  3 11  2  0  0  0  0
  4  5  1  0  0  0  0
  5  6  1  0  0  0  0
  5  7  1  0  0  0  0
  7  9  1  0  0  0  0
  7  8  2  0  0  0  0
  9 11  1  0  0  0  0
  9 10  1  0  0  0  0
 11 12  1  0  0  0  0
 12 13  2  0  0  0  0
 14 16  1  0  0  0  0
 14 15  1  0  0  0  0
 16 17  2  0  0  0  0
 16 18  2  0  0  0  0
 16 19  1  0  0  0  0
 19 26  2  0  0  0  0
 19 20  1  0  0  0  0
 20 21  2  0  0  0  0
 21 23  1  0  0  0  0
 21 22  1  0  0  0  0
 23 25  1  0  0  0  0
 23 24  2  0  0  0  0
 24 26  1  0  0  0  0
M  END
>  <MODEL>
1

>  <REMARK>
 VINA RESULT:    -8.184      0.000      0.000
 INTER + INTRA:         -10.241
 INTER:                  -9.619
 INTRA:                  -0.622
 UNBOUND:                -0.622
  3 active torsions:
  status: ('A' for Active; 'I' for Inactive)
    1  A    between atoms: C_6  and  S_9 
    2  A    between atoms: S_9  and  N_12 
    3  A    between atoms: N_12  and  C_14 

>  <COMPND>
    /home/daniil/Downloads/ml_docking_review/databases/Vina/outputs/7T3F_EM0/7T3F_EM0.pdbqt 

>  <AUTHOR>
    GENERATED BY OPEN BABEL 3.2.1

>  <MASTER>
        0    0    0    0    0    0    0    0   26    0   26    0

$$$$
