../../databases/Vina/outputs/7MRH_ZMJ/7MRH_ZMJ1.pdb
 OpenBabel08242616453D

 25 27  0  0  0  0  0  0  0  0999 V2000
    2.9140   -0.8420  -31.7450 C   0  0  0  0  0  0  0  0  0  0  0  0
    4.3060   -2.8430  -32.0510 C   0  0  0  0  0  0  0  0  0  0  0  0
    5.4170   -2.1640  -31.5100 C   0  0  0  0  0  0  0  0  0  0  0  0
    4.0380   -0.1770  -31.1980 C   0  0  0  0  0  0  0  0  0  0  0  0
    1.0730    0.3150  -30.6390 C   0  0  0  0  0  0  0  0  0  0  0  0
   -0.7730    1.2420  -31.7920 C   0  0  0  0  0  0  0  0  0  0  0  0
   -0.2540    0.8200  -33.0340 C   0  0  0  0  0  0  0  0  0  0  0  0
   -0.9490    1.0880  -34.2390 C   0  0  0  0  0  0  0  0  0  0  0  0
   -0.4300    0.6620  -35.4690 C   0  0  0  0  0  0  0  0  0  0  0  0
    0.7840   -0.0360  -35.5140 C   0  0  0  0  0  0  0  0  0  0  0  0
    1.4850   -0.3050  -34.3260 C   0  0  0  0  0  0  0  0  0  0  0  0
    0.9850    0.1130  -33.0630 C   0  0  0  0  0  0  0  0  0  0  0  0
    1.6680   -0.1460  -31.8370 C   0  0  0  0  0  0  0  0  0  0  0  0
   -0.6950    1.4550  -29.3790 C   0  0  0  0  0  0  0  0  0  0  0  0
    3.0650   -2.1860  -32.1620 C   0  0  0  0  0  0  0  0  0  0  0  0
    5.2850   -0.8290  -31.0830 C   0  0  0  0  0  0  0  0  0  0  0  0
   -0.1100    1.0020  -30.6240 N   0  0  0  0  0  0  0  0  0  0  0  0
   -1.8590    1.8540  -31.7580 O   0  0  0  0  0  0  0  0  0  0  0  0
    6.3950   -0.2440  -30.5700 N   0  0  0  0  0  0  0  0  0  0  0  0
    6.5380   -0.3120  -29.5630 H   0  0  0  0  0  0  0  0  0  0  0  0
    7.5710    0.5930  -31.4710 S   0  0  0  0  0  0  0  0  0  0  0  0
    8.0630   -0.3840  -32.6430 O   0  0  0  0  0  0  0  0  0  0  0  0
    6.9590    1.9520  -32.0490 O   0  0  0  0  0  0  0  0  0  0  0  0
    9.0110    0.9700  -30.4060 C   0  0  0  0  0  0  0  0  0  0  0  0
    8.8720    0.2870  -29.0310 C   0  0  0  0  0  0  0  0  0  0  0  0
  1 15  2  0  0  0  0
  1 13  1  0  0  0  0
  1  4  1  0  0  0  0
  2 15  1  0  0  0  0
  2  3  2  0  0  0  0
  3 16  1  0  0  0  0
  4 16  2  0  0  0  0
  5 13  2  0  0  0  0
  5 17  1  0  0  0  0
  6  7  1  0  0  0  0
  6 18  2  0  0  0  0
  6 17  1  0  0  0  0
  7  8  2  0  0  0  0
  7 12  1  0  0  0  0
  8  9  1  0  0  0  0
  9 10  2  0  0  0  0
 10 11  1  0  0  0  0
 11 12  2  0  0  0  0
 12 13  1  0  0  0  0
 14 17  1  0  0  0  0
 16 19  1  0  0  0  0
 19 21  1  0  0  0  0
 19 20  1  0  0  0  0
 21 22  2  0  0  0  0
 21 23  2  0  0  0  0
 21 24  1  0  0  0  0
 24 25  1  0  0  0  0
M  END
>  <MODEL>
1

>  <REMARK>
 VINA RESULT:    -8.561      0.000      0.000
 INTER + INTRA:         -10.304
 INTER:                 -10.063
 INTRA:                  -0.241
 UNBOUND:                -0.241
  3 active torsions:
  status: ('A' for Active; 'I' for Inactive)
    1  A    between atoms: C_5  and  S_25 
    2  A    between atoms: C_18  and  N_20 
    3  A    between atoms: N_20  and  S_25 

>  <COMPND>
    /home/daniil/Downloads/ml_docking_review/databases/Vina/outputs/7MRH_ZMJ/7MRH_ZMJ.pdbqt 

>  <AUTHOR>
    GENERATED BY OPEN BABEL 3.2.1

>  <MASTER>
        0    0    0    0    0    0    0    0   25    0   25    0

$$$$
