../../databases/Vina/outputs/7ELT_TYM/7ELT_TYM1.pdb
 OpenBabel08242616453D

 48 52  0  0  1  0  0  0  0  0999 V2000
   13.2230   44.8840   12.6620 C   0  0  1  0  0  0  0  0  0  0  0  0
   12.0450   44.3360   12.1270 O   0  0  0  0  0  0  0  0  0  0  0  0
   11.3120   45.2990   11.4500 C   0  0  2  0  0  0  0  0  0  0  0  0
   11.7750   46.6670   11.9790 C   0  0  1  0  0  0  0  0  0  0  0  0
   13.2420   46.3680   12.2520 C   0  0  2  0  0  0  0  0  0  0  0  0
   13.2570   44.6950   14.1590 C   0  0  0  0  0  0  0  0  0  0  0  0
   12.0510   44.9470   14.7750 O   0  0  0  0  0  0  0  0  0  0  0  0
   11.9530   45.5630   16.1940 P   0  0  1  0  0  0  0  0  0  0  0  0
   10.5690   46.1340   16.3910 O   0  0  0  0  0  0  0  0  0  0  0  0
   12.5480   44.6000   17.1930 O   0  0  0  0  0  0  0  0  0  0  0  0
   12.9650   46.7360   15.9390 O   0  0  0  0  0  0  0  0  0  0  0  0
   13.3340   47.7740   16.8020 C   0  0  0  0  0  0  0  0  0  0  0  0
   12.8060   47.8480   17.8240 O   0  0  0  0  0  0  0  0  0  0  0  0
   14.3810   48.7470   16.3520 C   0  0  2  0  0  0  0  0  0  0  0  0
   15.7160   48.1610   16.7240 C   0  0  0  0  0  0  0  0  0  0  0  0
   16.9180   49.0300   16.5810 C   0  0  0  0  0  0  0  0  0  0  0  0
   17.7870   49.5470   17.5140 C   0  0  0  0  0  0  0  0  0  0  0  0
   18.7770   50.2140   16.9300 N   0  0  0  0  0  0  0  0  0  0  0  0
   18.6720   50.1940   15.6360 C   0  0  0  0  0  0  0  0  0  0  0  0
   19.5270   50.6840   17.4370 H   0  0  0  0  0  0  0  0  0  0  0  0
   19.3680   50.7250   14.5770 C   0  0  0  0  0  0  0  0  0  0  0  0
   17.4820   49.4300   15.3110 C   0  0  0  0  0  0  0  0  0  0  0  0
   18.9710   50.5020   13.2930 C   0  0  0  0  0  0  0  0  0  0  0  0
   17.8560   49.7570   13.0110 C   0  0  0  0  0  0  0  0  0  0  0  0
   17.1030   49.2030   14.0220 C   0  0  0  0  0  0  0  0  0  0  0  0
   14.1960   50.0120   17.0350 N   0  0  0  0  0  4  0  0  0  0  0  0
   14.1000   49.8940   18.0430 H   0  0  0  0  0  0  0  0  0  0  0  0
   15.0440   50.5780   17.0330 H   0  0  0  0  0  0  0  0  0  0  0  0
   13.4020   50.5080   16.6290 H   0  0  0  0  0  0  0  0  0  0  0  0
   14.0200   46.6370   11.1040 O   0  0  0  0  0  0  0  0  0  0  0  0
   13.6660   46.2670   10.3030 H   0  0  0  0  0  0  0  0  0  0  0  0
    9.8680   45.0480   11.5520 N   0  0  0  0  0  0  0  0  0  0  0  0
    9.1970   44.9650   12.6870 C   0  0  0  0  0  0  0  0  0  0  0  0
    7.9170   44.7530   12.4830 N   0  0  0  0  0  0  0  0  0  0  0  0
    7.7360   44.7010   11.1950 C   0  0  0  0  0  0  0  0  0  0  0  0
    7.1990   44.6490   13.2000 H   0  0  0  0  0  0  0  0  0  0  0  0
    6.5950   44.4910   10.3210 C   0  0  2  0  0  0  0  0  0  0  0  0
    9.0330   44.8990   10.5680 C   0  0  0  0  0  0  0  0  0  0  0  0
    5.3790   44.2690   10.7840 N   0  0  0  0  0  0  0  0  0  0  0  0
    6.8300   44.4930    9.0310 N   0  0  0  0  0  0  0  0  0  0  0  0
    5.1960   44.2680   11.7880 H   0  0  0  0  0  0  0  0  0  0  0  0
    4.5780   44.1210   10.1700 H   0  0  0  0  0  0  0  0  0  0  0  0
    8.0000   44.7250    8.5140 C   0  0  0  0  0  0  0  0  0  0  0  0
    6.0530   44.3010    8.3990 H   0  0  0  0  0  0  0  0  0  0  0  0
    9.0740   44.8770    9.2300 N   0  0  0  0  0  0  0  0  0  0  0  0
    9.9740   44.9810    8.7600 H   0  0  0  0  0  0  0  0  0  0  0  0
   11.5840   47.7480   11.0980 O   0  0  0  0  0  0  0  0  0  0  0  0
   11.4940   47.5130   10.1810 H   0  0  0  0  0  0  0  0  0  0  0  0
  1  2  1  0  0  0  0
  1  5  1  0  0  0  0
  1  6  1  1  0  0  0
  2  3  1  0  0  0  0
  3 32  1  1  0  0  0
  3  4  1  0  0  0  0
  4 47  1  6  0  0  0
  4  5  1  0  0  0  0
  5 30  1  6  0  0  0
  6  7  1  0  0  0  0
  7  8  1  0  0  0  0
  8 11  1  0  0  0  0
  8  9  2  1  0  0  0
  8 10  1  0  0  0  0
 11 12  1  0  0  0  0
 12 14  1  0  0  0  0
 12 13  2  0  0  0  0
 14 15  1  1  0  0  0
 14 26  1  0  0  0  0
 15 16  1  0  0  0  0
 16 22  1  0  0  0  0
 16 17  2  0  0  0  0
 17 18  1  0  0  0  0
 18 19  1  0  0  0  0
 18 20  1  0  0  0  0
 19 21  2  0  0  0  0
 19 22  1  0  0  0  0
 21 23  1  0  0  0  0
 22 25  2  0  0  0  0
 23 24  2  0  0  0  0
 24 25  1  0  0  0  0
 26 29  1  0  0  0  0
 26 28  1  0  0  0  0
 26 27  1  0  0  0  0
 30 31  1  0  0  0  0
 32 38  1  0  0  0  0
 32 33  1  0  0  0  0
 33 34  1  0  0  0  0
 34 35  1  0  0  0  0
 34 36  1  0  0  0  0
 35 37  1  0  0  0  0
 35 38  2  0  0  0  0
 37 40  1  0  0  0  0
 37 39  1  1  0  0  0
 38 45  1  0  0  0  0
 39 42  1  0  0  0  0
 39 41  1  0  0  0  0
 40 44  1  0  0  0  0
 40 43  1  0  0  0  0
 43 45  1  0  0  0  0
 45 46  1  0  0  0  0
 47 48  1  0  0  0  0
M  END
>  <MODEL>
1

>  <REMARK>
 VINA RESULT:   -12.923      0.000      0.000
 INTER + INTRA:         -22.311
 INTER:                 -20.855
 INTRA:                  -1.456
 UNBOUND:                -1.456
  12 active torsions:
  status: ('A' for Active; 'I' for Inactive)
    1  A    between atoms: P_1  and  O_4 
    2  A    between atoms: P_1  and  O_48 
    3  A    between atoms: O_4  and  C_5 
    4  A    between atoms: C_5  and  C_6 
    5  A    between atoms: C_8  and  N_9 
    6  A    between atoms: C_24  and  O_25 
    7  A    between atoms: C_27  and  O_28 
    8  A    between atoms: N_30  and  C_34 
    9  A    between atoms: C_34  and  C_35 
   10  A    between atoms: C_34  and  C_46 
   11  A    between atoms: C_35  and  C_36 
   12  A    between atoms: C_46  and  O_48 

>  <COMPND>
    /home/daniil/Downloads/ml_docking_review/databases/Vina/outputs/7ELT_TYM/7ELT_TYM.pdbqt 

>  <AUTHOR>
    GENERATED BY OPEN BABEL 3.2.1

>  <MASTER>
        0    0    0    0    0    0    0    0   48    0   48    0

$$$$
