../../databases/Vina/outputs/8AY3_OE3/8AY3_OE31.pdb
 OpenBabel08242616453D

 26 28  0  0  0  0  0  0  0  0999 V2000
   -0.9960    5.5460   31.2950 C   0  0  0  0  0  0  0  0  0  0  0  0
    2.3710    7.4750   29.6520 N   0  0  0  0  0  0  0  0  0  0  0  0
    0.0210    7.5080   30.3230 C   0  0  0  0  0  0  0  0  0  0  0  0
    1.2420    6.8460   30.2260 C   0  0  0  0  0  0  0  0  0  0  0  0
    1.3570    5.5210   30.6900 C   0  0  0  0  0  0  0  0  0  0  0  0
    0.2260    4.8920   31.2210 C   0  0  0  0  0  0  0  0  0  0  0  0
    2.6500    4.8720   30.5790 C   0  0  0  0  0  0  0  0  0  0  0  0
    2.8320    3.4600   31.0570 C   0  0  0  0  0  0  0  0  0  0  0  0
   -1.0810    6.8580   30.8510 C   0  0  0  0  0  0  0  0  0  0  0  0
    3.6760    5.5550   30.0400 C   0  0  0  0  0  0  0  0  0  0  0  0
    3.6090    6.8750   29.5550 C   0  0  0  0  0  0  0  0  0  0  0  0
    4.5650    7.4940   29.0950 O   0  0  0  0  0  0  0  0  0  0  0  0
   -2.2250    4.8330   31.8080 C   0  0  0  0  0  0  0  0  0  0  0  0
   -2.0330    4.1500   33.1000 N   0  0  0  0  0  0  0  0  0  0  0  0
   -2.1340    3.1360   33.1440 H   0  0  0  0  0  0  0  0  0  0  0  0
   -1.6690    4.9590   34.4470 S   0  0  0  0  0  0  0  0  0  0  0  0
   -2.2120    6.2750   34.2890 O   0  0  0  0  0  0  0  0  0  0  0  0
   -2.1050    4.1560   35.5460 O   0  0  0  0  0  0  0  0  0  0  0  0
    0.0650    5.1050   34.5370 C   0  0  0  0  0  0  0  0  0  0  0  0
    0.8550    3.9640   34.6280 C   0  0  0  0  0  0  0  0  0  0  0  0
    2.2270    4.0810   34.6900 C   0  0  0  0  0  0  0  0  0  0  0  0
    2.8210    5.3280   34.6650 C   0  0  0  0  0  0  0  0  0  0  0  0
    2.0390    6.4660   34.5780 C   0  0  0  0  0  0  0  0  0  0  0  0
    0.6660    6.3580   34.5150 C   0  0  0  0  0  0  0  0  0  0  0  0
    2.2470    8.8210   29.0670 C   0  0  0  0  0  0  0  0  0  0  0  0
    2.4800    9.8900   30.1010 C   0  0  0  0  0  0  0  0  0  0  0  0
  1  9  2  0  0  0  0
  1  6  1  0  0  0  0
  1 13  1  0  0  0  0
  2 25  1  0  0  0  0
  2 11  1  0  0  0  0
  2  4  1  0  0  0  0
  3  4  2  0  0  0  0
  3  9  1  0  0  0  0
  4  5  1  0  0  0  0
  5  7  1  0  0  0  0
  5  6  2  0  0  0  0
  7 10  2  0  0  0  0
  7  8  1  0  0  0  0
 10 11  1  0  0  0  0
 11 12  2  0  0  0  0
 13 14  1  0  0  0  0
 14 15  1  0  0  0  0
 14 16  1  0  0  0  0
 16 17  2  0  0  0  0
 16 19  1  0  0  0  0
 16 18  2  0  0  0  0
 19 24  2  0  0  0  0
 19 20  1  0  0  0  0
 20 21  2  0  0  0  0
 21 22  1  0  0  0  0
 22 23  2  0  0  0  0
 23 24  1  0  0  0  0
 25 26  1  0  0  0  0
M  END
>  <MODEL>
1

>  <REMARK>
 VINA RESULT:   -10.181      0.000      0.000
 INTER + INTRA:         -14.787
 INTER:                 -13.157
 INTRA:                  -1.631
 UNBOUND:                -1.631
  5 active torsions:
  status: ('A' for Active; 'I' for Inactive)
    1  A    between atoms: C_1  and  C_9 
    2  A    between atoms: N_2  and  C_8 
    3  A    between atoms: C_9  and  N_21 
    4  A    between atoms: C_12  and  S_26 
    5  A    between atoms: N_21  and  S_26 

>  <COMPND>
    /home/daniil/Downloads/ml_docking_review/databases/Vina/outputs/8AY3_OE3/8AY3_OE3.pdbqt 

>  <AUTHOR>
    GENERATED BY OPEN BABEL 3.2.1

>  <MASTER>
        0    0    0    0    0    0    0    0   26    0   26    0

$$$$
