../../databases/Vina/outputs/7POM_7VZ/7POM_7VZ1.pdb
 OpenBabel08242611493D

 24 25  0  0  0  0  0  0  0  0999 V2000
  -41.8280   18.0400  -64.7520 Cl  0  0  0  0  0  0  0  0  0  0  0  0
  -42.0700   19.1390  -63.3560 C   0  0  0  0  0  0  0  0  0  0  0  0
  -42.6400   20.4810  -63.5750 C   0  0  0  0  0  0  0  0  0  0  0  0
  -41.7240   18.7350  -62.0780 C   0  0  0  0  0  0  0  0  0  0  0  0
  -41.9150   19.5770  -60.9970 C   0  0  0  0  0  0  0  0  0  0  0  0
  -42.5120   20.9510  -61.2290 C   0  0  0  0  0  0  0  0  0  0  0  0
  -42.8370   21.3270  -62.5170 C   0  0  0  0  0  0  0  0  0  0  0  0
  -41.4860   19.1050  -59.4150 S   0  0  0  0  0  0  0  0  0  0  0  0
  -39.9150   18.2680  -59.2790 C   0  0  0  0  0  0  0  0  0  0  0  0
  -39.4910   18.2730  -57.8220 C   0  0  0  0  0  0  0  0  0  0  0  0
  -38.4240   17.2030  -57.6650 C   0  0  0  0  0  0  0  0  0  0  0  0
  -37.2560   17.3320  -58.6890 C   0  0  0  0  0  0  0  0  0  0  0  0
  -37.5820   17.7230  -60.1440 C   0  0  0  0  0  0  0  0  0  0  0  0
  -38.7490   18.7310  -60.1790 C   0  0  0  0  0  0  0  0  0  0  0  0
  -42.7590   21.9970  -60.0070 S   0  0  0  0  0  0  0  0  0  0  0  0
  -43.2230   23.2450  -60.5390 O   0  0  0  0  0  0  0  0  0  0  0  0
  -43.6010   21.4360  -58.9910 O   0  0  0  0  0  0  0  0  0  0  0  0
  -41.3380   22.2190  -59.2490 N   0  0  0  0  0  0  0  0  0  0  0  0
  -40.9370   23.1310  -59.0330 H   0  0  0  0  0  0  0  0  0  0  0  0
  -40.9210   21.3140  -59.0300 H   0  0  0  0  0  0  0  0  0  0  0  0
  -43.0120   20.8890  -64.9450 C   0  0  0  0  0  0  0  0  0  0  0  0
  -42.1740   21.0250  -65.7980 O   0  0  0  0  0  0  0  0  0  0  0  0
  -44.3780   21.0770  -65.2880 O   0  0  0  0  0  0  0  0  0  0  0  0
  -44.9780   22.3550  -65.1210 C   0  0  0  0  0  0  0  0  0  0  0  0
  1  2  1  0  0  0  0
  2  3  2  0  0  0  0
  2  4  1  0  0  0  0
  3 21  1  0  0  0  0
  3  7  1  0  0  0  0
  4  5  2  0  0  0  0
  5  6  1  0  0  0  0
  5  8  1  0  0  0  0
  6  7  2  0  0  0  0
  6 15  1  0  0  0  0
  8  9  1  0  0  0  0
  9 14  1  0  0  0  0
  9 10  1  0  0  0  0
 10 11  1  0  0  0  0
 11 12  1  0  0  0  0
 12 13  1  0  0  0  0
 13 14  1  0  0  0  0
 15 16  2  0  0  0  0
 15 18  1  0  0  0  0
 15 17  2  0  0  0  0
 18 19  1  0  0  0  0
 18 20  1  0  0  0  0
 21 22  2  0  0  0  0
 21 23  1  0  0  0  0
 23 24  1  0  0  0  0
M  END
>  <MODEL>
1

>  <REMARK>
 VINA RESULT:    -7.799      0.000      0.000
 INTER + INTRA:         -10.110
 INTER:                 -10.306
 INTRA:                   0.197
 UNBOUND:                 0.197
  6 active torsions:
  status: ('A' for Active; 'I' for Inactive)
    1  A    between atoms: C_3  and  C_4 
    2  A    between atoms: C_4  and  O_5 
    3  A    between atoms: C_9  and  S_18 
    4  A    between atoms: C_10  and  S_11 
    5  A    between atoms: S_11  and  N_13 
    6  A    between atoms: S_18  and  C_19 

>  <COMPND>
    /home/daniil/Downloads/ml_docking_review/databases/Vina/outputs/7POM_7VZ/7POM_7VZ.pdbqt 

>  <AUTHOR>
    GENERATED BY OPEN BABEL 3.2.1

>  <MASTER>
        0    0    0    0    0    0    0    0   24    0   24    0

$$$$
