../../databases/Vina/outputs/8G43_ZU6/8G43_ZU61.pdb
 OpenBabel08242611493D

 23 24  0  0  1  0  0  0  0  0999 V2000
    3.3810    3.3010    8.2210 C   0  0  0  0  0  0  0  0  0  0  0  0
    2.9320    3.5550    9.5010 C   0  0  0  0  0  0  0  0  0  0  0  0
    1.1130    3.4750   11.1650 C   0  0  0  0  0  0  0  0  0  0  0  0
   -0.2320    3.1420   11.3570 N   0  0  0  0  0  0  0  0  0  0  0  0
    1.8160    3.7780   12.1230 O   0  0  0  0  0  0  0  0  0  0  0  0
    1.5930    3.3060    9.8190 C   0  0  0  0  0  0  0  0  0  0  0  0
    2.5210    2.8230    7.2530 C   0  0  0  0  0  0  0  0  0  0  0  0
    1.2030    2.5650    7.5600 C   0  0  0  0  0  0  0  0  0  0  0  0
    0.7250    2.8080    8.8410 C   0  0  0  0  0  0  0  0  0  0  0  0
   -0.6060    2.5050    9.1140 N   0  0  0  0  0  0  0  0  0  0  0  0
   -1.2290    2.1760    8.3750 H   0  0  0  0  0  0  0  0  0  0  0  0
   -1.0310    2.6510   10.3180 C   0  0  2  0  0  0  0  0  0  0  0  0
   -0.7860    3.3050   12.6880 C   0  0  0  0  0  0  0  0  0  0  0  0
   -0.3580    2.1760   13.6140 C   0  0  0  0  0  0  0  0  0  0  0  0
   -0.8530    1.0580   13.4830 O   0  0  0  0  0  0  0  0  0  0  0  0
    0.5090    2.4560   14.5800 N   0  0  0  0  0  0  0  0  0  0  0  0
    1.0700    1.4170   15.4360 C   0  0  0  0  0  0  0  0  0  0  0  0
    0.7910    3.4250   14.7270 H   0  0  0  0  0  0  0  0  0  0  0  0
   -2.4540    2.3200   10.6240 C   0  0  0  0  0  0  0  0  0  0  0  0
   -3.2510    1.8320    9.4360 C   0  0  0  0  0  0  0  0  0  0  0  0
   -3.9160    2.9270    8.6470 C   0  0  0  0  0  0  0  0  0  0  0  0
   -3.2500    3.3340    7.6280 O   0  0  0  0  0  0  0  0  0  0  0  0
   -4.9870    3.4100    9.0070 O   0  0  0  0  0  0  0  0  0  0  0  0
  1  7  2  0  0  0  0
  1  2  1  0  0  0  0
  2  6  2  0  0  0  0
  3  6  1  0  0  0  0
  3  4  1  0  0  0  0
  3  5  2  0  0  0  0
  4 12  1  0  0  0  0
  4 13  1  0  0  0  0
  6  9  1  0  0  0  0
  7  8  1  0  0  0  0
  8  9  2  0  0  0  0
  9 10  1  0  0  0  0
 10 11  1  0  0  0  0
 10 12  1  0  0  0  0
 12 19  1  6  0  0  0
 13 14  1  0  0  0  0
 14 15  2  0  0  0  0
 14 16  1  0  0  0  0
 16 18  1  0  0  0  0
 16 17  1  0  0  0  0
 19 20  1  0  0  0  0
 20 21  1  0  0  0  0
 21 22  2  0  0  0  0
 21 23  1  0  0  0  0
M  END
>  <MODEL>
1

>  <REMARK>
 VINA RESULT:    -6.673      0.000      0.000
 INTER + INTRA:          -9.383
 INTER:                  -8.624
 INTRA:                  -0.759
 UNBOUND:                -0.759
  5 active torsions:
  status: ('A' for Active; 'I' for Inactive)
       I    between atoms: C_5  and  N_6 
    1  A    between atoms: C_5  and  C_9 
    2  A    between atoms: C_9  and  N_10 
    3  A    between atoms: C_18  and  C_19 
    4  A    between atoms: C_19  and  C_20 
    5  A    between atoms: C_20  and  C_21 

>  <COMPND>
    /home/daniil/Downloads/ml_docking_review/databases/Vina/outputs/8G43_ZU6/8G43_ZU6.pdbqt 

>  <AUTHOR>
    GENERATED BY OPEN BABEL 3.2.1

>  <MASTER>
        0    0    0    0    0    0    0    0   23    0   23    0

$$$$
