../../databases/Vina/outputs/7N03_ZRP/7N03_ZRP1.pdb
 OpenBabel08242612033D

 32 34  0  0  0  0  0  0  0  0999 V2000
  -46.3830    9.9490    1.2950 C   0  0  0  0  0  0  0  0  0  0  0  0
  -47.2690   10.3440    2.2550 C   0  0  0  0  0  0  0  0  0  0  0  0
  -46.8760   11.2630    3.2580 C   0  0  0  0  0  0  0  0  0  0  0  0
  -45.5570   11.7740    3.2410 C   0  0  0  0  0  0  0  0  0  0  0  0
  -44.6780   11.3640    2.2090 C   0  0  0  0  0  0  0  0  0  0  0  0
  -45.1990   12.6930    4.2620 C   0  0  0  0  0  0  0  0  0  0  0  0
  -46.1750   13.1440    5.1670 C   0  0  0  0  0  0  0  0  0  0  0  0
  -47.4420   12.5450    5.0830 C   0  0  0  0  0  0  0  0  0  0  0  0
  -47.7880   11.6390    4.1960 N   0  0  0  0  0  0  0  0  0  0  0  0
  -48.7210   11.2260    4.2100 H   0  0  0  0  0  0  0  0  0  0  0  0
  -45.0900   10.4640    1.2440 C   0  0  0  0  0  0  0  0  0  0  0  0
  -43.9000   13.1730    4.3640 N   0  0  0  0  0  0  0  0  0  0  0  0
  -43.7500   14.1610    4.1600 H   0  0  0  0  0  0  0  0  0  0  0  0
  -42.7410   12.3920    4.7330 C   0  0  0  0  0  0  0  0  0  0  0  0
  -41.4650   12.6150    4.2440 C   0  0  0  0  0  0  0  0  0  0  0  0
  -40.4280   11.7580    4.5690 C   0  0  0  0  0  0  0  0  0  0  0  0
  -40.6620   10.6990    5.4110 C   0  0  0  0  0  0  0  0  0  0  0  0
  -41.9470   10.4510    5.8710 C   0  0  0  0  0  0  0  0  0  0  0  0
  -42.9860   11.2940    5.5500 C   0  0  0  0  0  0  0  0  0  0  0  0
  -45.8810   14.1900    6.1880 C   0  0  0  0  0  0  0  0  0  0  0  0
  -44.8460   14.8780    6.1530 O   0  0  0  0  0  0  0  0  0  0  0  0
  -46.7800   14.4430    7.1370 N   0  0  0  0  0  0  0  0  0  0  0  0
  -46.5760   15.5130    8.1020 C   0  0  0  0  0  0  0  0  0  0  0  0
  -47.6280   13.8770    7.1880 H   0  0  0  0  0  0  0  0  0  0  0  0
  -44.2310   10.1250    0.2180 N   0  0  0  0  0  0  0  0  0  0  0  0
  -44.5620    9.5440   -0.5520 H   0  0  0  0  0  0  0  0  0  0  0  0
  -42.8530   10.5960    0.2360 C   0  0  0  0  0  0  0  0  0  0  0  0
  -41.9200    9.6790   -0.5200 C   0  0  0  0  0  0  0  0  0  0  0  0
  -40.5960    9.3960    0.1450 C   0  0  0  0  0  0  0  0  0  0  0  0
  -40.3060   10.3010    1.3320 C   0  0  0  0  0  0  0  0  0  0  0  0
  -39.2510   11.3570    1.0180 C   0  0  0  0  0  0  0  0  0  0  0  0
  -39.7890   12.7600    0.8630 C   0  0  0  0  0  0  0  0  0  0  0  0
  1 11  2  0  0  0  0
  1  2  1  0  0  0  0
  2  3  2  0  0  0  0
  3  4  1  0  0  0  0
  3  9  1  0  0  0  0
  4  5  1  0  0  0  0
  4  6  2  0  0  0  0
  5 11  1  0  0  0  0
  6 12  1  0  0  0  0
  6  7  1  0  0  0  0
  7  8  2  0  0  0  0
  7 20  1  0  0  0  0
  8  9  1  0  0  0  0
  9 10  1  0  0  0  0
 11 25  1  0  0  0  0
 12 13  1  0  0  0  0
 12 14  1  0  0  0  0
 14 15  2  0  0  0  0
 14 19  1  0  0  0  0
 15 16  1  0  0  0  0
 16 17  2  0  0  0  0
 17 18  1  0  0  0  0
 18 19  2  0  0  0  0
 20 21  2  0  0  0  0
 20 22  1  0  0  0  0
 22 24  1  0  0  0  0
 22 23  1  0  0  0  0
 25 26  1  0  0  0  0
 25 27  1  0  0  0  0
 27 28  1  0  0  0  0
 28 29  1  0  0  0  0
 29 30  1  0  0  0  0
 30 31  1  0  0  0  0
 31 32  1  0  0  0  0
M  END
>  <MODEL>
1

>  <REMARK>
 VINA RESULT:   -10.184      0.000      0.000
 INTER + INTRA:         -17.289
 INTER:                 -15.543
 INTRA:                  -1.747
 UNBOUND:                -1.747
  9 active torsions:
  status: ('A' for Active; 'I' for Inactive)
    1  A    between atoms: C_1  and  C_2 
    2  A    between atoms: C_2  and  C_3 
    3  A    between atoms: C_3  and  C_31 
    4  A    between atoms: C_9  and  N_23 
    5  A    between atoms: C_10  and  C_12 
       I    between atoms: C_12  and  N_19 
    6  A    between atoms: N_23  and  C_25 
    7  A    between atoms: C_27  and  N_28 
    8  A    between atoms: N_28  and  C_30 
    9  A    between atoms: C_30  and  C_31 

>  <COMPND>
    /home/daniil/Downloads/ml_docking_review/databases/Vina/outputs/7N03_ZRP/7N03_ZRP.pdbqt 

>  <AUTHOR>
    GENERATED BY OPEN BABEL 3.2.1

>  <MASTER>
        0    0    0    0    0    0    0    0   32    0   32    0

$$$$
