../../databases/Vina/outputs/7MOI_HPS/7MOI_HPS1.pdb
 OpenBabel08242612033D

 11 11  0  0  0  0  0  0  0  0999 V2000
   13.3450    9.2650    2.9850 C   0  0  0  0  0  0  0  0  0  0  0  0
   12.3070    8.4170    2.5980 C   0  0  0  0  0  0  0  0  0  0  0  0
   12.2680    7.8480    1.3230 C   0  0  0  0  0  0  0  0  0  0  0  0
   13.2830    8.1280    0.4270 C   0  0  0  0  0  0  0  0  0  0  0  0
   14.3220    8.9780    0.8090 C   0  0  0  0  0  0  0  0  0  0  0  0
   14.3570    9.5440    2.0810 C   0  0  0  0  0  0  0  0  0  0  0  0
   15.3890    9.3200   -0.0610 O   0  0  0  0  0  0  0  0  0  0  0  0
   15.6280    8.8030   -1.5310 P   0  0  0  0  0  0  0  0  0  0  0  0
   16.9690    9.4120   -1.8250 O   0  0  0  0  0  0  0  0  0  0  0  0
   15.7280    7.3180   -1.6060 O   0  0  0  0  0  0  0  0  0  0  0  0
   14.5910    9.3320   -2.4680 O   0  0  0  0  0  0  0  0  0  0  0  0
  1  6  2  0  0  0  0
  1  2  1  0  0  0  0
  2  3  2  0  0  0  0
  3  4  1  0  0  0  0
  4  5  2  0  0  0  0
  5  7  1  0  0  0  0
  5  6  1  0  0  0  0
  7  8  1  0  0  0  0
  8 11  2  0  0  0  0
  8  9  1  0  0  0  0
  8 10  1  0  0  0  0
M  END
>  <MODEL>
1

>  <REMARK>
 VINA RESULT:    -7.318      0.000      0.000
 INTER + INTRA:          -8.174
 INTER:                  -8.174
 INTRA:                   0.000
 UNBOUND:                 0.000
  2 active torsions:
  status: ('A' for Active; 'I' for Inactive)
    1  A    between atoms: C_5  and  O_7 
    2  A    between atoms: O_7  and  P_8 

>  <COMPND>
    /home/daniil/Downloads/ml_docking_review/databases/Vina/outputs/7MOI_HPS/7MOI_HPS.pdbqt 

>  <AUTHOR>
    GENERATED BY OPEN BABEL 3.2.1

>  <MASTER>
        0    0    0    0    0    0    0    0   11    0   11    0

$$$$
