../../databases/Vina/outputs/7S45_ACO/7S45_ACO1.pdb
 OpenBabel08242616453D

 60 62  0  0  1  0  0  0  0  0999 V2000
  -18.3520  -30.5420   34.5090 P   0  0  2  0  0  0  0  0  0  0  0  0
  -18.3330  -31.9360   35.1080 O   0  0  0  0  0  0  0  0  0  0  0  0
  -18.6060  -29.3150   35.3960 O   0  0  0  0  0  0  0  0  0  0  0  0
  -19.4250  -30.5400   33.3530 O   0  0  0  0  0  0  0  0  0  0  0  0
  -20.6860  -29.8840   33.5290 C   0  0  0  0  0  0  0  0  0  0  0  0
  -21.7780  -30.8980   33.2990 C   0  0  1  0  0  0  0  0  0  0  0  0
  -21.6460  -31.9580   34.2730 O   0  0  0  0  0  0  0  0  0  0  0  0
  -22.8430  -32.0960   35.0210 C   0  0  2  0  0  0  0  0  0  0  0  0
  -23.5520  -30.7820   34.8930 C   0  0  1  0  0  0  0  0  0  0  0  0
  -23.1570  -30.2990   33.4920 C   0  0  2  0  0  0  0  0  0  0  0  0
  -22.4170  -32.3010   36.4150 N   0  0  1  0  0  0  0  0  0  0  0  0
  -21.4430  -33.1220   36.7410 C   0  0  2  0  0  0  0  0  0  0  0  0
  -21.3650  -33.0060   38.1960 C   0  0  0  0  0  0  0  0  0  0  0  0
  -20.6270  -33.9300   36.0610 N   0  0  0  0  0  0  0  0  0  0  0  0
  -20.3410  -33.7920   38.8570 C   0  0  0  0  0  0  0  0  0  0  0  0
  -22.2950  -32.1330   38.6240 N   0  0  0  0  0  0  0  0  0  0  0  0
  -20.2040  -33.7610   40.1910 N   0  0  0  0  0  0  0  0  0  0  0  0
  -19.5590  -34.5520   38.1090 N   0  0  0  0  0  0  0  0  0  0  0  0
  -20.8070  -33.1750   40.7680 H   0  0  0  0  0  0  0  0  0  0  0  0
  -19.4830  -34.3130   40.6560 H   0  0  0  0  0  0  0  0  0  0  0  0
  -19.7120  -34.6140   36.7770 C   0  0  0  0  0  0  0  0  0  0  0  0
  -18.8250  -35.1030   38.5530 H   0  0  0  0  0  0  0  0  0  0  0  0
  -22.9240  -31.6990   37.5000 C   0  0  0  0  0  0  0  0  0  0  0  0
  -22.4860  -31.8550   39.5860 H   0  0  0  0  0  0  0  0  0  0  0  0
  -20.6920  -34.0260   35.0470 H   0  0  0  0  0  0  0  0  0  0  0  0
  -24.9700  -30.9580   35.0740 O   0  0  0  0  0  0  0  0  0  0  0  0
  -25.2140  -31.8620   34.9150 H   0  0  0  0  0  0  0  0  0  0  0  0
  -24.0580  -30.8950   32.5660 O   0  0  0  0  0  0  0  0  0  0  0  0
  -25.1090  -29.9550   31.7340 P   0  0  0  0  0  0  0  0  0  0  0  0
  -26.1820  -29.5200   32.7000 O   0  0  0  0  0  0  0  0  0  0  0  0
  -25.6940  -30.8460   30.6990 O   0  0  0  0  0  0  0  0  0  0  0  0
  -24.1710  -28.9120   31.2740 O   0  0  0  0  0  0  0  0  0  0  0  0
  -17.0800  -30.2100   33.7170 O   0  0  0  0  0  0  0  0  0  0  0  0
  -16.6790  -31.0070   32.3960 P   0  0  2  0  0  0  0  0  0  0  0  0
  -17.7210  -30.8140   31.3220 O   0  0  0  0  0  0  0  0  0  0  0  0
  -16.2630  -32.2460   33.0140 O   0  0  0  0  0  0  0  0  0  0  0  0
  -15.2870  -30.3460   31.8580 O   0  0  0  0  0  0  0  0  0  0  0  0
  -14.1900  -31.1780   31.7790 C   0  0  0  0  0  0  0  0  0  0  0  0
  -12.8800  -30.4550   31.9610 C   0  0  0  0  0  0  0  0  0  0  0  0
  -12.0550  -31.0460   30.8240 C   0  0  0  0  0  0  0  0  0  0  0  0
  -12.9130  -28.9430   31.8060 C   0  0  0  0  0  0  0  0  0  0  0  0
  -12.1870  -30.7490   33.3360 C   0  0  2  0  0  0  0  0  0  0  0  0
  -13.0970  -30.5240   34.5190 C   0  0  0  0  0  0  0  0  0  0  0  0
  -13.8660  -31.4050   34.9090 O   0  0  0  0  0  0  0  0  0  0  0  0
  -12.9590  -29.3300   35.0910 N   0  0  0  0  0  0  0  0  0  0  0  0
  -12.2780  -28.6790   34.7010 H   0  0  0  0  0  0  0  0  0  0  0  0
  -13.7400  -28.9090   36.2510 C   0  0  0  0  0  0  0  0  0  0  0  0
  -15.0870  -28.3330   35.8240 C   0  0  0  0  0  0  0  0  0  0  0  0
  -14.9400  -27.3700   34.6600 C   0  0  0  0  0  0  0  0  0  0  0  0
  -15.7640  -27.5660   33.6330 N   0  0  0  0  0  0  0  0  0  0  0  0
  -16.4090  -28.3560   33.6660 H   0  0  0  0  0  0  0  0  0  0  0  0
  -14.1010  -26.4530   34.7310 O   0  0  0  0  0  0  0  0  0  0  0  0
  -15.7800  -26.6960   32.4610 C   0  0  0  0  0  0  0  0  0  0  0  0
  -16.7650  -27.2100   31.4140 C   0  0  0  0  0  0  0  0  0  0  0  0
  -18.4180  -27.2360   32.0470 S   0  0  0  0  0  0  0  0  0  0  0  0
  -19.2670  -27.4310   30.5840 C   0  0  0  0  0  0  0  0  0  0  0  0
  -19.8540  -28.4830   30.3560 O   0  0  0  0  0  0  0  0  0  0  0  0
  -19.1790  -26.3640   29.5260 C   0  0  0  0  0  0  0  0  0  0  0  0
  -11.0110  -29.9630   33.5600 O   0  0  0  0  0  0  0  0  0  0  0  0
  -10.7780  -29.8870   34.4770 H   0  0  0  0  0  0  0  0  0  0  0  0
  1  4  1  0  0  0  0
  1 33  1  0  0  0  0
  1  2  2  1  0  0  0
  1  3  1  0  0  0  0
  4  5  1  0  0  0  0
  6  5  1  1  0  0  0
  6 10  1  0  0  0  0
  6  7  1  0  0  0  0
  8  7  1  6  0  0  0
  8  9  1  0  0  0  0
  8 11  1  0  0  0  0
  9 10  1  0  0  0  0
  9 26  1  6  0  0  0
 10 28  1  6  0  0  0
 11 12  1  0  0  0  0
 11 23  1  6  0  0  0
 12 14  1  0  0  0  0
 12 13  1  6  0  0  0
 13 16  1  0  0  0  0
 13 15  2  0  0  0  0
 14 25  1  0  0  0  0
 14 21  1  0  0  0  0
 15 18  1  0  0  0  0
 15 17  1  0  0  0  0
 16 23  1  0  0  0  0
 16 24  1  0  0  0  0
 17 20  1  0  0  0  0
 17 19  1  0  0  0  0
 18 21  1  0  0  0  0
 18 22  1  0  0  0  0
 26 27  1  0  0  0  0
 28 29  1  0  0  0  0
 29 31  2  0  0  0  0
 29 32  1  0  0  0  0
 29 30  1  0  0  0  0
 33 34  1  0  0  0  0
 34 35  2  6  0  0  0
 34 37  1  0  0  0  0
 34 36  1  0  0  0  0
 37 38  1  0  0  0  0
 38 39  1  0  0  0  0
 39 40  1  0  0  0  0
 39 41  1  0  0  0  0
 39 42  1  0  0  0  0
 42 59  1  1  0  0  0
 42 43  1  0  0  0  0
 43 44  2  0  0  0  0
 43 45  1  0  0  0  0
 45 46  1  0  0  0  0
 45 47  1  0  0  0  0
 47 48  1  0  0  0  0
 48 49  1  0  0  0  0
 49 50  1  0  0  0  0
 49 52  2  0  0  0  0
 50 53  1  0  0  0  0
 50 51  1  0  0  0  0
 53 54  1  0  0  0  0
 54 55  1  0  0  0  0
 55 56  1  0  0  0  0
 56 58  1  0  0  0  0
 56 57  2  0  0  0  0
 59 60  1  0  0  0  0
M  END
>  <MODEL>
1

>  <REMARK>
 VINA RESULT:    -5.922      0.000      0.000
 INTER + INTRA:         -17.288
 INTER:                 -13.192
 INTRA:                  -4.096
 UNBOUND:                -4.096
  22 active torsions:
  status: ('A' for Active; 'I' for Inactive)
    1  A    between atoms: N_15  and  C_16 
    2  A    between atoms: C_17  and  O_18 
    3  A    between atoms: C_20  and  O_21 
    4  A    between atoms: O_21  and  P_22 
    5  A    between atoms: C_26  and  C_28 
    6  A    between atoms: C_28  and  O_29 
    7  A    between atoms: O_29  and  P_30 
    8  A    between atoms: P_30  and  O_33 
    9  A    between atoms: O_33  and  P_34 
   10  A    between atoms: P_34  and  O_37 
   11  A    between atoms: O_37  and  C_39 
   12  A    between atoms: C_38  and  C_42 
   13  A    between atoms: C_38  and  C_39 
   14  A    between atoms: C_42  and  C_45 
   15  A    between atoms: C_42  and  O_43 
       I    between atoms: C_45  and  N_47 
   16  A    between atoms: N_47  and  C_49 
   17  A    between atoms: C_49  and  C_50 
   18  A    between atoms: C_50  and  C_51 
       I    between atoms: C_51  and  N_53 
   19  A    between atoms: N_53  and  C_55 
   20  A    between atoms: C_55  and  C_56 
   21  A    between atoms: C_56  and  S_57 
   22  A    between atoms: S_57  and  C_58 

>  <COMPND>
    /home/daniil/Downloads/ml_docking_review/databases/Vina/outputs/7S45_ACO/7S45_ACO.pdbqt 

>  <AUTHOR>
    GENERATED BY OPEN BABEL 3.2.1

>  <MASTER>
        0    0    0    0    0    0    0    0   60    0   60    0

$$$$
