../../databases/Vina/outputs/6M2B_EZO/6M2B_EZO1.pdb
 OpenBabel08242616453D

 27 29  0  0  1  0  0  0  0  0999 V2000
   27.5840  -22.4890   23.7030 N   0  0  0  0  0  0  0  0  0  0  0  0
   27.4390  -23.4500   24.8210 C   0  0  0  0  0  0  0  0  0  0  0  0
   26.6150  -22.3290   22.7650 C   0  0  2  0  0  0  0  0  0  0  0  0
   25.4690  -23.0120   22.7800 N   0  0  0  0  0  0  0  0  0  0  0  0
   24.6780  -22.7690   21.6900 C   0  0  0  0  0  0  0  0  0  0  0  0
   25.2090  -23.6530   23.5290 H   0  0  0  0  0  0  0  0  0  0  0  0
   25.2980  -21.8920   20.8240 C   0  0  0  0  0  0  0  0  0  0  0  0
   26.8300  -21.3730   21.3710 S   0  0  0  0  0  0  0  0  0  0  0  0
   23.4180  -23.4990   21.4440 C   0  0  0  0  0  0  0  0  0  0  0  0
   22.3560  -23.5260   22.3020 C   0  0  0  0  0  0  0  0  0  0  0  0
   22.3860  -22.5010   23.7290 Cl  0  0  0  0  0  0  0  0  0  0  0  0
   21.2080  -24.2830   22.0620 C   0  0  0  0  0  0  0  0  0  0  0  0
   21.1920  -25.0610   20.9220 C   0  0  0  0  0  0  0  0  0  0  0  0
   22.2690  -25.0510   20.0380 C   0  0  0  0  0  0  0  0  0  0  0  0
   23.4010  -24.3220   20.2980 C   0  0  0  0  0  0  0  0  0  0  0  0
   28.8420  -22.0690   23.3340 N   0  0  0  0  0  0  0  0  0  0  0  0
   29.8700  -22.4570   23.9140 C   0  0  0  0  0  0  0  0  0  0  0  0
   28.9330  -21.4150   22.5570 H   0  0  0  0  0  0  0  0  0  0  0  0
   31.2060  -21.9660   23.5550 C   0  0  0  0  0  0  0  0  0  0  0  0
   31.9100  -21.1170   24.3780 C   0  0  0  0  0  0  0  0  0  0  0  0
   33.1570  -20.6730   23.9550 C   0  0  0  0  0  0  0  0  0  0  0  0
   33.7160  -21.1020   22.7570 C   0  0  0  0  0  0  0  0  0  0  0  0
   33.0120  -21.9830   21.9520 C   0  0  0  0  0  0  0  0  0  0  0  0
   31.7840  -22.4110   22.3620 C   0  0  0  0  0  0  0  0  0  0  0  0
   31.3910  -20.6060   25.6930 C   0  0  0  0  0  0  0  0  0  0  0  0
   31.7340  -19.4090   26.1000 O   0  0  0  0  0  0  0  0  0  0  0  0
   30.6540  -21.3020   26.4290 O   0  0  0  0  0  0  0  0  0  0  0  0
  1 16  1  0  0  0  0
  1  2  1  0  0  0  0
  3  1  1  6  0  0  0
  3  8  1  0  0  0  0
  3  4  1  0  0  0  0
  4  5  1  0  0  0  0
  4  6  1  0  0  0  0
  5  7  2  0  0  0  0
  5  9  1  0  0  0  0
  7  8  1  0  0  0  0
  9 15  2  0  0  0  0
  9 10  1  0  0  0  0
 10 12  2  0  0  0  0
 10 11  1  0  0  0  0
 12 13  1  0  0  0  0
 13 14  2  0  0  0  0
 14 15  1  0  0  0  0
 16 18  1  0  0  0  0
 16 17  1  0  0  0  0
 17 19  1  0  0  0  0
 19 24  2  0  0  0  0
 19 20  1  0  0  0  0
 20 21  2  0  0  0  0
 20 25  1  0  0  0  0
 21 22  1  0  0  0  0
 22 23  2  0  0  0  0
 23 24  1  0  0  0  0
 25 26  2  0  0  0  0
 25 27  1  0  0  0  0
M  END
>  <MODEL>
1

>  <REMARK>
 VINA RESULT:   -10.762      0.000      0.000
 INTER + INTRA:         -14.026
 INTER:                 -13.907
 INTRA:                  -0.119
 UNBOUND:                -0.119
  5 active torsions:
  status: ('A' for Active; 'I' for Inactive)
    1  A    between atoms: C_4  and  C_8 
    2  A    between atoms: C_5  and  C_7 
    3  A    between atoms: C_9  and  N_14 
    4  A    between atoms: N_12  and  N_14 
    5  A    between atoms: C_17  and  C_20 

>  <COMPND>
    /home/daniil/Downloads/ml_docking_review/databases/Vina/outputs/6M2B_EZO/6M2B_EZO.pdbqt 

>  <AUTHOR>
    GENERATED BY OPEN BABEL 3.2.1

>  <MASTER>
        0    0    0    0    0    0    0    0   27    0   27    0

$$$$
