../../databases/Vina/outputs/6TW7_NZB/6TW7_NZB1.pdb
 OpenBabel08242616453D

 32 35  0  0  1  0  0  0  0  0999 V2000
    6.3510   50.4170   63.1840 C   0  0  0  0  0  0  0  0  0  0  0  0
    6.8600   49.2720   63.8230 C   0  0  0  0  0  0  0  0  0  0  0  0
    5.5380   51.3410   63.9210 C   0  0  0  0  0  0  0  0  0  0  0  0
    6.5870   49.1810   65.1700 C   0  0  0  0  0  0  0  0  0  0  0  0
    5.8540   50.0860   65.9240 C   0  0  0  0  0  0  0  0  0  0  0  0
    5.3340   51.2060   65.2840 C   0  0  0  0  0  0  0  0  0  0  0  0
    7.0130   48.1110   65.8890 F   0  0  0  0  0  0  0  0  0  0  0  0
    4.9970   52.5940   63.2770 C   0  0  0  0  0  0  0  0  0  0  0  0
    5.7330   53.7150   63.4090 C   0  0  0  0  0  0  0  0  0  0  0  0
    5.3420   54.8650   62.7450 C   0  0  0  0  0  0  0  0  0  0  0  0
    5.9240   56.1920   62.6720 C   0  0  0  0  0  0  0  0  0  0  0  0
    4.1260   54.9520   61.9700 C   0  0  1  0  0  0  0  0  0  0  0  0
    5.0930   56.9200   61.9180 N   0  0  0  0  0  0  0  0  0  0  0  0
    4.0190   56.1990   61.4390 N   0  0  0  0  0  0  0  0  0  0  0  0
    5.2390   57.9100   61.7170 H   0  0  0  0  0  0  0  0  0  0  0  0
    3.2890   56.5350   60.8110 H   0  0  0  0  0  0  0  0  0  0  0  0
    3.3280   53.7770   61.8630 C   0  0  0  0  0  0  0  0  0  0  0  0
    3.8200   52.6260   62.5100 C   0  0  0  0  0  0  0  0  0  0  0  0
    7.1800   56.6210   63.3750 C   0  0  0  0  0  0  0  0  0  0  0  0
    8.4180   56.7480   62.5580 N   0  0  0  0  0  0  0  0  0  0  0  0
    9.2940   57.8270   63.0080 C   0  0  0  0  0  0  0  0  0  0  0  0
    9.0440   55.4060   62.3980 C   0  0  0  0  0  0  0  0  0  0  0  0
    6.5070   50.6370   61.8820 O   0  0  0  0  0  0  0  0  0  0  0  0
    5.8980   49.8220   60.8890 C   0  0  0  0  0  0  0  0  0  0  0  0
    5.2070   50.7540   59.9190 C   0  0  0  0  0  0  0  0  0  0  0  0
    3.9430   50.2010   59.3360 C   0  0  0  0  0  0  0  0  0  0  0  0
    3.0220   51.0960   58.7660 C   0  0  0  0  0  0  0  0  0  0  0  0
    1.8740   50.4890   58.2480 C   0  0  0  0  0  0  0  0  0  0  0  0
    1.6260   49.1290   58.3260 C   0  0  0  0  0  0  0  0  0  0  0  0
    2.5350   48.2850   58.8730 N   0  0  0  0  0  0  0  0  0  0  0  0
    3.6760   48.8310   59.3860 C   0  0  0  0  0  0  0  0  0  0  0  0
    2.3720   47.2780   58.9000 H   0  0  0  0  0  0  0  0  0  0  0  0
  1 23  1  0  0  0  0
  1  2  2  0  0  0  0
  1  3  1  0  0  0  0
  2  4  1  0  0  0  0
  3  8  1  0  0  0  0
  3  6  2  0  0  0  0
  4  7  1  0  0  0  0
  4  5  2  0  0  0  0
  5  6  1  0  0  0  0
  8 18  1  0  0  0  0
  8  9  2  0  0  0  0
  9 10  1  0  0  0  0
 10 12  1  0  0  0  0
 10 11  2  0  0  0  0
 11 13  1  0  0  0  0
 11 19  1  0  0  0  0
 12 14  1  0  0  0  0
 12 17  1  6  0  0  0
 13 14  1  0  0  0  0
 13 15  1  0  0  0  0
 14 16  1  0  0  0  0
 17 18  2  0  0  0  0
 19 20  1  0  0  0  0
 20 22  1  0  0  0  0
 20 21  1  0  0  0  0
 23 24  1  0  0  0  0
 24 25  1  0  0  0  0
 25 26  1  0  0  0  0
 26 27  1  0  0  0  0
 26 31  2  0  0  0  0
 27 28  2  0  0  0  0
 28 29  1  0  0  0  0
 29 30  1  0  0  0  0
 30 32  1  0  0  0  0
 30 31  1  0  0  0  0
M  END
>  <MODEL>
1

>  <REMARK>
 VINA RESULT:    -9.939      0.000      0.000
 INTER + INTRA:         -15.688
 INTER:                 -14.006
 INTRA:                  -1.682
 UNBOUND:                -1.682
  7 active torsions:
  status: ('A' for Active; 'I' for Inactive)
    1  A    between atoms: C_1  and  C_2 
    2  A    between atoms: C_2  and  N_25 
    3  A    between atoms: C_9  and  C_16 
    4  A    between atoms: C_10  and  C_11 
    5  A    between atoms: C_10  and  O_27 
    6  A    between atoms: C_11  and  C_12 
    7  A    between atoms: C_13  and  O_27 

>  <COMPND>
    /home/daniil/Downloads/ml_docking_review/databases/Vina/outputs/6TW7_NZB/6TW7_NZB.pdbqt 

>  <AUTHOR>
    GENERATED BY OPEN BABEL 3.2.1

>  <MASTER>
        0    0    0    0    0    0    0    0   32    0   32    0

$$$$
