../../databases/Vina/outputs/6XG5_TOP/6XG5_TOP1.pdb
 OpenBabel08242616453D

 27 28  0  0  1  0  0  0  0  0999 V2000
   -8.1480   26.7340   18.9110 C   0  0  0  0  0  0  0  0  0  0  0  0
   -8.2310   26.1970   20.1410 N   0  0  0  0  0  0  0  0  0  0  0  0
   -7.7760   26.6330   20.9420 H   0  0  0  0  0  0  0  0  0  0  0  0
   -8.9450   25.0550   20.2730 C   0  0  2  0  0  0  0  0  0  0  0  0
   -9.5830   24.4390   19.2650 N   0  0  0  0  0  0  0  0  0  0  0  0
  -10.1410   23.6010   19.4270 H   0  0  0  0  0  0  0  0  0  0  0  0
   -9.4590   24.9700   18.0310 C   0  0  0  0  0  0  0  0  0  0  0  0
   -8.7370   26.1740   17.7870 C   0  0  0  0  0  0  0  0  0  0  0  0
   -8.5590   26.7470   16.3770 C   0  0  0  0  0  0  0  0  0  0  0  0
   -8.0410   28.1670   16.2570 C   0  0  0  0  0  0  0  0  0  0  0  0
   -8.9130   29.1990   15.9370 C   0  0  0  0  0  0  0  0  0  0  0  0
   -8.4640   30.5150   15.8750 C   0  0  0  0  0  0  0  0  0  0  0  0
   -7.1290   30.8260   16.1270 C   0  0  0  0  0  0  0  0  0  0  0  0
   -6.2370   29.7840   16.3950 C   0  0  0  0  0  0  0  0  0  0  0  0
   -6.6930   28.4690   16.4460 C   0  0  0  0  0  0  0  0  0  0  0  0
   -9.2520   31.5950   15.6140 O   0  0  0  0  0  0  0  0  0  0  0  0
  -10.6630   31.3920   15.5630 C   0  0  0  0  0  0  0  0  0  0  0  0
   -6.6960   32.1340   16.0050 O   0  0  0  0  0  0  0  0  0  0  0  0
   -6.6750   32.8950   17.2010 C   0  0  0  0  0  0  0  0  0  0  0  0
   -4.9490   30.1800   16.6320 O   0  0  0  0  0  0  0  0  0  0  0  0
   -3.9730   29.1630   16.8530 C   0  0  0  0  0  0  0  0  0  0  0  0
  -10.0800   24.3080   17.0310 N   0  0  0  0  0  0  0  0  0  0  0  0
   -9.6310   23.5270   16.5510 H   0  0  0  0  0  0  0  0  0  0  0  0
  -11.0090   24.6440   16.7770 H   0  0  0  0  0  0  0  0  0  0  0  0
   -9.0380   24.5080   21.4860 N   0  0  0  0  0  0  0  0  0  0  0  0
   -9.3030   25.1090   22.2660 H   0  0  0  0  0  0  0  0  0  0  0  0
   -8.8520   23.5090   21.5680 H   0  0  0  0  0  0  0  0  0  0  0  0
  1  8  1  0  0  0  0
  1  2  1  0  0  0  0
  2  4  1  0  0  0  0
  2  3  1  0  0  0  0
  4  5  1  0  0  0  0
  4 25  1  1  0  0  0
  5  7  1  0  0  0  0
  5  6  1  0  0  0  0
  7 22  1  0  0  0  0
  7  8  2  0  0  0  0
  8  9  1  0  0  0  0
  9 10  1  0  0  0  0
 10 11  2  0  0  0  0
 10 15  1  0  0  0  0
 11 12  1  0  0  0  0
 12 16  1  0  0  0  0
 12 13  2  0  0  0  0
 13 18  1  0  0  0  0
 13 14  1  0  0  0  0
 14 15  2  0  0  0  0
 14 20  1  0  0  0  0
 16 17  1  0  0  0  0
 18 19  1  0  0  0  0
 20 21  1  0  0  0  0
 22 23  1  0  0  0  0
 22 24  1  0  0  0  0
 25 27  1  0  0  0  0
 25 26  1  0  0  0  0
M  END
>  <MODEL>
1

>  <REMARK>
 VINA RESULT:    -8.454      0.000      0.000
 INTER + INTRA:         -11.605
 INTER:                 -11.419
 INTRA:                  -0.187
 UNBOUND:                -0.187
  7 active torsions:
  status: ('A' for Active; 'I' for Inactive)
    1  A    between atoms: C_4  and  N_5 
    2  A    between atoms: C_10  and  N_11 
    3  A    between atoms: C_14  and  C_15 
    4  A    between atoms: C_15  and  C_16 
    5  A    between atoms: C_18  and  O_19 
    6  A    between atoms: C_21  and  O_22 
    7  A    between atoms: C_24  and  O_25 

>  <COMPND>
    /home/daniil/Downloads/ml_docking_review/databases/Vina/outputs/6XG5_TOP/6XG5_TOP.pdbqt 

>  <AUTHOR>
    GENERATED BY OPEN BABEL 3.2.1

>  <MASTER>
        0    0    0    0    0    0    0    0   27    0   27    0

$$$$
