../../databases/Vina/outputs/8AIJ_M9I/8AIJ_M9I1.pdb
 OpenBabel08242616453D

 23 24  0  0  1  0  0  0  0  0999 V2000
    5.8450   20.9580   24.0230 C   0  0  1  0  0  0  0  0  0  0  0  0
    5.5850   20.0500   22.8140 C   0  0  2  0  0  0  0  0  0  0  0  0
    6.8240   19.2650   22.4400 C   0  0  1  0  0  0  0  0  0  0  0  0
    7.3700   18.5200   23.6480 C   0  0  1  0  0  0  0  0  0  0  0  0
    7.6140   19.4790   24.7990 C   0  0  2  0  0  0  0  0  0  0  0  0
    8.0360   18.7590   26.0600 C   0  0  0  0  0  0  0  0  0  0  0  0
    6.4070   20.2090   25.1040 O   0  0  0  0  0  0  0  0  0  0  0  0
    6.6650   22.0880   23.6630 N   0  0  0  0  0  0  0  0  0  0  0  0
    6.2640   23.3280   23.8800 C   0  0  0  0  0  0  0  0  0  0  0  0
    5.3060   23.5810   24.6130 O   0  0  0  0  0  0  0  0  0  0  0  0
    7.5760   21.9260   23.2320 H   0  0  0  0  0  0  0  0  0  0  0  0
    7.0000   24.4180   23.1620 C   0  0  0  0  0  0  0  0  0  0  0  0
    6.3350   25.5670   22.7250 C   0  0  0  0  0  0  0  0  0  0  0  0
    7.0310   26.5730   22.0650 C   0  0  0  0  0  0  0  0  0  0  0  0
    8.3860   26.4400   21.8730 C   0  0  0  0  0  0  0  0  0  0  0  0
    9.0470   25.3120   22.3190 C   0  0  0  0  0  0  0  0  0  0  0  0
    8.3580   24.2920   22.9540 C   0  0  0  0  0  0  0  0  0  0  0  0
    5.1370   20.8000   21.6930 O   0  0  0  0  0  0  0  0  0  0  0  0
    5.6600   20.5760   20.9320 H   0  0  0  0  0  0  0  0  0  0  0  0
    6.4940   18.3340   21.4130 O   0  0  0  0  0  0  0  0  0  0  0  0
    6.1120   18.7960   20.6760 H   0  0  0  0  0  0  0  0  0  0  0  0
    6.4030   17.5070   23.9760 O   0  0  0  0  0  0  0  0  0  0  0  0
    6.6280   17.0380   24.7700 H   0  0  0  0  0  0  0  0  0  0  0  0
  1  2  1  0  0  0  0
  1  8  1  6  0  0  0
  1  7  1  0  0  0  0
  2 18  1  6  0  0  0
  2  3  1  0  0  0  0
  3 20  1  6  0  0  0
  3  4  1  0  0  0  0
  4 22  1  1  0  0  0
  4  5  1  0  0  0  0
  5  7  1  0  0  0  0
  5  6  1  1  0  0  0
  8 11  1  0  0  0  0
  8  9  1  0  0  0  0
  9 12  1  0  0  0  0
  9 10  2  0  0  0  0
 12 13  2  0  0  0  0
 12 17  1  0  0  0  0
 13 14  1  0  0  0  0
 14 15  2  0  0  0  0
 15 16  1  0  0  0  0
 16 17  2  0  0  0  0
 18 19  1  0  0  0  0
 20 21  1  0  0  0  0
 22 23  1  0  0  0  0
M  END
>  <MODEL>
1

>  <REMARK>
 VINA RESULT:    -6.794      0.000      0.000
 INTER + INTRA:          -8.596
 INTER:                  -8.184
 INTRA:                  -0.412
 UNBOUND:                -0.412
  5 active torsions:
  status: ('A' for Active; 'I' for Inactive)
    1  A    between atoms: C_1  and  N_16 
    2  A    between atoms: C_2  and  O_7 
    3  A    between atoms: C_3  and  O_9 
    4  A    between atoms: C_4  and  O_11 
    5  A    between atoms: C_15  and  C_18 
       I    between atoms: C_15  and  N_16 

>  <COMPND>
    /home/daniil/Downloads/ml_docking_review/databases/Vina/outputs/8AIJ_M9I/8AIJ_M9I.pdbqt 

>  <AUTHOR>
    GENERATED BY OPEN BABEL 3.2.1

>  <MASTER>
        0    0    0    0    0    0    0    0   23    0   23    0

$$$$
