../../databases/Vina/outputs/7XI7_4RI/7XI7_4RI1.pdb
 OpenBabel08242616453D

 22 23  0  0  1  0  0  0  0  0999 V2000
   -4.5380  -17.2410   -2.5760 C   0  0  2  0  0  0  0  0  0  0  0  0
   -4.8010  -18.2770   -1.7120 C   0  0  0  0  0  0  0  0  0  0  0  0
   -5.6560  -19.2840   -2.1350 C   0  0  0  0  0  0  0  0  0  0  0  0
   -6.1840  -19.2770   -3.3390 N   0  0  0  0  0  0  0  0  0  0  0  0
   -6.8030  -20.0190   -3.6660 H   0  0  0  0  0  0  0  0  0  0  0  0
   -5.0740  -17.2240   -3.7850 N   0  0  0  0  0  0  0  0  0  0  0  0
   -4.8900  -16.4650   -4.4420 H   0  0  0  0  0  0  0  0  0  0  0  0
   -5.8620  -18.2420   -4.0990 C   0  0  2  0  0  0  0  0  0  0  0  0
   -6.4390  -18.1880   -5.4260 N   0  0  0  0  0  0  0  0  0  0  0  0
   -5.9830  -20.3870   -1.2740 N   0  0  0  0  0  0  0  0  0  0  0  0
   -3.6070  -16.0890   -2.1960 C   0  0  0  0  0  0  0  0  0  0  0  0
   -2.1440  -16.3840   -2.5230 C   0  0  0  0  0  0  0  0  0  0  0  0
   -1.2380  -15.6370   -1.5470 C   0  0  0  0  0  0  0  0  0  0  0  0
   -1.8180  -15.6620   -0.1330 C   0  0  0  0  0  0  0  0  0  0  0  0
   -1.5150  -14.3060    0.4980 C   0  0  0  0  0  0  0  0  0  0  0  0
   -1.9950  -14.3100    1.9530 C   0  0  0  0  0  0  0  0  0  0  0  0
   -4.2320  -18.3430   -0.2910 C   0  0  0  0  0  0  0  0  0  0  0  0
   -3.2260  -19.1510    0.0380 C   0  0  0  0  0  0  0  0  0  0  0  0
   -2.7340  -19.1570    1.4820 C   0  0  0  0  0  0  0  0  0  0  0  0
   -3.3160  -18.3840    2.3840 C   0  0  0  0  0  0  0  0  0  0  0  0
   -4.4660  -17.4740    1.9960 C   0  0  0  0  0  0  0  0  0  0  0  0
   -4.8920  -17.4610    0.7510 C   0  0  0  0  0  0  0  0  0  0  0  0
  1  6  1  0  0  0  0
  1 11  1  6  0  0  0
  1  2  1  0  0  0  0
  2  3  2  0  0  0  0
  2 17  1  0  0  0  0
  3  4  1  0  0  0  0
  3 10  1  0  0  0  0
  4  8  1  0  0  0  0
  4  5  1  0  0  0  0
  6  7  1  0  0  0  0
  6  8  1  0  0  0  0
  8  9  1  1  0  0  0
 11 12  1  0  0  0  0
 12 13  1  0  0  0  0
 13 14  1  0  0  0  0
 14 15  1  0  0  0  0
 15 16  1  0  0  0  0
 17 18  2  0  0  0  0
 17 22  1  0  0  0  0
 18 19  1  0  0  0  0
 19 20  2  0  0  0  0
 20 21  1  0  0  0  0
 21 22  2  0  0  0  0
M  END
>  <MODEL>
1

>  <REMARK>
 VINA RESULT:    -7.990      0.000      0.000
 INTER + INTRA:         -12.275
 INTER:                 -10.792
 INTRA:                  -1.483
 UNBOUND:                -1.483
  6 active torsions:
  status: ('A' for Active; 'I' for Inactive)
    1  A    between atoms: C_1  and  C_13 
    2  A    between atoms: C_2  and  C_17 
    3  A    between atoms: C_9  and  C_10 
    4  A    between atoms: C_10  and  C_11 
    5  A    between atoms: C_11  and  C_12 
    6  A    between atoms: C_12  and  C_13 

>  <COMPND>
    /home/daniil/Downloads/ml_docking_review/databases/Vina/outputs/7XI7_4RI/7XI7_4RI.pdbqt 

>  <AUTHOR>
    GENERATED BY OPEN BABEL 3.2.1

>  <MASTER>
        0    0    0    0    0    0    0    0   22    0   22    0

$$$$
