../../databases/Vina/outputs/8AJX_FUM/8AJX_FUM1.pdb
 OpenBabel08242616453D

  8  7  0  0  0  0  0  0  0  0999 V2000
   -0.9650  -32.1020    8.3270 C   0  0  0  0  0  0  0  0  0  0  0  0
    0.1640  -31.4910    8.6870 C   0  0  0  0  0  0  0  0  0  0  0  0
   -1.1380  -33.1260    7.2680 C   0  0  0  0  0  0  0  0  0  0  0  0
   -0.3190  -34.0500    7.2440 O   0  0  0  0  0  0  0  0  0  0  0  0
   -2.0450  -32.9860    6.4330 O   0  0  0  0  0  0  0  0  0  0  0  0
    0.2530  -30.5360    9.8270 C   0  0  0  0  0  0  0  0  0  0  0  0
    1.1570  -30.6920   10.6680 O   0  0  0  0  0  0  0  0  0  0  0  0
   -0.5820  -29.6320    9.8850 O   0  0  0  0  0  0  0  0  0  0  0  0
  1  3  1  0  0  0  0
  1  2  2  0  0  0  0
  2  6  1  0  0  0  0
  3  5  2  0  0  0  0
  3  4  1  0  0  0  0
  6  8  2  0  0  0  0
  6  7  1  0  0  0  0
M  END
>  <MODEL>
1

>  <REMARK>
 VINA RESULT:    -3.864      0.000      0.000
 INTER + INTRA:          -4.344
 INTER:                  -4.316
 INTRA:                  -0.028
 UNBOUND:                -0.028
  2 active torsions:
  status: ('A' for Active; 'I' for Inactive)
    1  A    between atoms: C_2  and  C_4 
    2  A    between atoms: C_5  and  C_6 

>  <COMPND>
    /home/daniil/Downloads/ml_docking_review/databases/Vina/outputs/8AJX_FUM/8AJX_FUM.pdbqt 

>  <AUTHOR>
    GENERATED BY OPEN BABEL 3.2.1

>  <MASTER>
        0    0    0    0    0    0    0    0    8    0    8    0

$$$$
