../../databases/Vina/outputs/7ECR_SIN/7ECR_SIN1.pdb
 OpenBabel08242616453D

  8  7  0  0  0  0  0  0  0  0999 V2000
  -59.1110  -29.4100  -41.7250 C   0  0  0  0  0  0  0  0  0  0  0  0
  -59.4560  -29.1150  -40.2600 C   0  0  0  0  0  0  0  0  0  0  0  0
  -58.9320  -29.7660  -39.3670 O   0  0  0  0  0  0  0  0  0  0  0  0
  -60.1710  -28.1470  -39.9900 O   0  0  0  0  0  0  0  0  0  0  0  0
  -58.9850  -28.1010  -42.3850 C   0  0  0  0  0  0  0  0  0  0  0  0
  -57.6350  -27.4260  -42.3700 C   0  0  0  0  0  0  0  0  0  0  0  0
  -57.5770  -26.1840  -42.1010 O   0  0  0  0  0  0  0  0  0  0  0  0
  -56.6960  -28.1860  -42.7630 O   0  0  0  0  0  0  0  0  0  0  0  0
  1  5  1  0  0  0  0
  1  2  1  0  0  0  0
  2  4  2  0  0  0  0
  2  3  1  0  0  0  0
  5  6  1  0  0  0  0
  6  8  2  0  0  0  0
  6  7  1  0  0  0  0
M  END
>  <MODEL>
1

>  <REMARK>
 VINA RESULT:    -5.333      0.000      0.000
 INTER + INTRA:          -6.396
 INTER:                  -6.268
 INTRA:                  -0.128
 UNBOUND:                -0.128
  3 active torsions:
  status: ('A' for Active; 'I' for Inactive)
    1  A    between atoms: C_1  and  C_4 
    2  A    between atoms: C_4  and  C_5 
    3  A    between atoms: C_5  and  C_6 

>  <COMPND>
    /home/daniil/Downloads/ml_docking_review/databases/Vina/outputs/7ECR_SIN/7ECR_SIN.pdbqt 

>  <AUTHOR>
    GENERATED BY OPEN BABEL 3.2.1

>  <MASTER>
        0    0    0    0    0    0    0    0    8    0    8    0

$$$$
