../../databases/Vina/outputs/6W59_SZD/6W59_SZD1.pdb
 OpenBabel08242611493D

 34 36  0  0  0  0  0  0  0  0999 V2000
   17.4230  -33.6240    7.2600 C   0  0  0  0  0  0  0  0  0  0  0  0
   15.0960  -33.0920    6.9610 C   0  0  0  0  0  0  0  0  0  0  0  0
   17.7080  -32.2710    7.4830 C   0  0  0  0  0  0  0  0  0  0  0  0
   16.1140  -34.0230    6.9980 C   0  0  0  0  0  0  0  0  0  0  0  0
   15.3620  -31.7450    7.1480 C   0  0  0  0  0  0  0  0  0  0  0  0
   16.6700  -31.3490    7.4130 C   0  0  0  0  0  0  0  0  0  0  0  0
   17.0330  -29.6280    7.5970 S   0  0  0  0  0  0  0  0  0  0  0  0
   15.9420  -28.9530    6.9470 O   0  0  0  0  0  0  0  0  0  0  0  0
   18.4060  -29.3700    7.1550 O   0  0  0  0  0  0  0  0  0  0  0  0
   16.9980  -29.3130    9.1710 N   0  0  0  0  0  0  0  0  0  0  0  0
   17.7920  -28.8080    9.5660 H   0  0  0  0  0  0  0  0  0  0  0  0
   15.9540  -29.6810   10.0590 C   0  0  0  0  0  0  0  0  0  0  0  0
   16.2940  -30.3730   11.2100 C   0  0  0  0  0  0  0  0  0  0  0  0
   15.3200  -30.7380   12.1140 C   0  0  0  0  0  0  0  0  0  0  0  0
   13.9950  -30.4210   11.8540 C   0  0  0  0  0  0  0  0  0  0  0  0
   13.6520  -29.7010   10.7130 C   0  0  0  0  0  0  0  0  0  0  0  0
   14.6300  -29.3480    9.8090 C   0  0  0  0  0  0  0  0  0  0  0  0
   12.9870  -30.8180   12.7710 O   0  0  0  0  0  0  0  0  0  0  0  0
   12.3480  -29.8290   13.3840 C   0  0  0  0  0  0  0  0  0  0  0  0
   11.9520  -30.2600   14.5730 F   0  0  0  0  0  0  0  0  0  0  0  0
   11.2690  -29.4600   12.7010 F   0  0  0  0  0  0  0  0  0  0  0  0
   13.1530  -28.7640   13.5660 F   0  0  0  0  0  0  0  0  0  0  0  0
   18.4290  -34.6150    7.3580 N   0  0  0  0  0  0  0  0  0  0  0  0
   18.8090  -35.5500    6.4370 C   0  0  0  0  0  0  0  0  0  0  0  0
   18.2640  -35.6780    5.3400 O   0  0  0  0  0  0  0  0  0  0  0  0
   18.9420  -34.6330    8.2390 H   0  0  0  0  0  0  0  0  0  0  0  0
   19.9820  -36.4170    6.8190 C   0  0  0  0  0  0  0  0  0  0  0  0
   21.2100  -36.4570    6.1390 C   0  0  0  0  0  0  0  0  0  0  0  0
   22.1940  -37.3220    6.5850 C   0  0  0  0  0  0  0  0  0  0  0  0
   22.0410  -38.1430    7.6720 C   0  0  0  0  0  0  0  0  0  0  0  0
   23.3920  -37.3770    5.9350 F   0  0  0  0  0  0  0  0  0  0  0  0
   20.8300  -38.0750    8.3110 C   0  0  0  0  0  0  0  0  0  0  0  0
   19.8040  -37.2400    7.9310 C   0  0  0  0  0  0  0  0  0  0  0  0
   20.6350  -38.8870    9.3820 F   0  0  0  0  0  0  0  0  0  0  0  0
  1  4  2  0  0  0  0
  1 23  1  0  0  0  0
  1  3  1  0  0  0  0
  2  4  1  0  0  0  0
  2  5  2  0  0  0  0
  3  6  2  0  0  0  0
  5  6  1  0  0  0  0
  6  7  1  0  0  0  0
  7  8  2  0  0  0  0
  7  9  2  0  0  0  0
  7 10  1  0  0  0  0
 10 11  1  0  0  0  0
 10 12  1  0  0  0  0
 12 17  2  0  0  0  0
 12 13  1  0  0  0  0
 13 14  2  0  0  0  0
 14 15  1  0  0  0  0
 15 16  2  0  0  0  0
 15 18  1  0  0  0  0
 16 17  1  0  0  0  0
 18 19  1  0  0  0  0
 19 21  1  0  0  0  0
 19 22  1  0  0  0  0
 19 20  1  0  0  0  0
 23 24  1  0  0  0  0
 23 26  1  0  0  0  0
 24 25  2  0  0  0  0
 24 27  1  0  0  0  0
 27 28  2  0  0  0  0
 27 33  1  0  0  0  0
 28 29  1  0  0  0  0
 29 31  1  0  0  0  0
 29 30  2  0  0  0  0
 30 32  1  0  0  0  0
 32 33  2  0  0  0  0
 32 34  1  0  0  0  0
M  END
>  <MODEL>
1

>  <REMARK>
 VINA RESULT:    -7.143      0.000      0.000
 INTER + INTRA:         -10.999
 INTER:                 -10.065
 INTRA:                  -0.934
 UNBOUND:                -0.934
  7 active torsions:
  status: ('A' for Active; 'I' for Inactive)
       I    between atoms: N_1  and  C_6 
    1  A    between atoms: N_1  and  C_7 
    2  A    between atoms: C_4  and  C_6 
    3  A    between atoms: C_11  and  O_31 
    4  A    between atoms: C_12  and  O_31 
    5  A    between atoms: C_21  and  S_22 
    6  A    between atoms: S_22  and  N_23 
    7  A    between atoms: N_23  and  C_27 

>  <COMPND>
    /home/daniil/Downloads/ml_docking_review/databases/Vina/outputs/6W59_SZD/6W59_SZD.pdbqt 

>  <AUTHOR>
    GENERATED BY OPEN BABEL 3.2.1

>  <MASTER>
        0    0    0    0    0    0    0    0   34    0   34    0

$$$$
