../../databases/Vina/outputs/7EPV_FDA/7EPV_FDA1.pdb
 OpenBabel08242616453D

 66 71  0  0  1  0  0  0  0  0999 V2000
    3.1510  -30.5810   -3.8470 O   0  0  0  0  0  0  0  0  0  0  0  0
    2.4360  -29.6440   -4.8820 P   0  0  1  0  0  0  0  0  0  0  0  0
    1.2620  -30.3720   -5.3000 O   0  0  0  0  0  0  0  0  0  0  0  0
    2.3060  -28.3060   -4.3380 O   0  0  0  0  0  0  0  0  0  0  0  0
    3.4570  -29.5680   -6.0680 O   0  0  0  0  0  0  0  0  0  0  0  0
    4.8900  -30.1840   -6.2450 P   0  0  2  0  0  0  0  0  0  0  0  0
    4.8890  -31.5680   -5.8140 O   0  0  0  0  0  0  0  0  0  0  0  0
    5.7890  -29.2840   -5.5220 O   0  0  0  0  0  0  0  0  0  0  0  0
    5.1540  -30.1100   -7.7980 O   0  0  0  0  0  0  0  0  0  0  0  0
    4.3620  -29.2640   -8.6300 C   0  0  0  0  0  0  0  0  0  0  0  0
    4.1660  -29.9440   -9.9590 C   0  0  2  0  0  0  0  0  0  0  0  0
    5.1840  -31.0490  -10.2630 C   0  0  2  0  0  0  0  0  0  0  0  0
    6.1130  -30.3640  -11.2810 C   0  0  2  0  0  0  0  0  0  0  0  0
    5.1410  -29.4520  -12.0190 C   0  0  1  0  0  0  0  0  0  0  0  0
    4.2420  -28.9910  -11.0390 O   0  0  0  0  0  0  0  0  0  0  0  0
    4.5590  -32.2220  -10.7360 O   0  0  0  0  0  0  0  0  0  0  0  0
    4.1940  -32.7780  -10.0580 H   0  0  0  0  0  0  0  0  0  0  0  0
    6.7250  -31.2790  -12.1390 O   0  0  0  0  0  0  0  0  0  0  0  0
    6.1120  -31.6550  -12.7590 H   0  0  0  0  0  0  0  0  0  0  0  0
    5.7190  -28.3040  -12.6830 N   0  0  1  0  0  0  0  0  0  0  0  0
    5.2430  -27.7090  -13.8160 C   0  0  2  0  0  0  0  0  0  0  0  0
    4.2220  -28.1130  -14.5690 N   0  0  0  0  0  0  0  0  0  0  0  0
    6.0320  -26.6060  -14.0390 C   0  0  0  0  0  0  0  0  0  0  0  0
    4.0190  -27.3060  -15.5940 C   0  0  0  0  0  0  0  0  0  0  0  0
    3.6640  -28.9450  -14.3760 H   0  0  0  0  0  0  0  0  0  0  0  0
    4.7000  -26.2170  -15.9370 N   0  0  0  0  0  0  0  0  0  0  0  0
    5.7400  -25.8300  -15.1750 C   0  0  0  0  0  0  0  0  0  0  0  0
    4.4380  -25.6810  -16.7640 H   0  0  0  0  0  0  0  0  0  0  0  0
    6.3910  -24.7240  -15.4970 N   0  0  0  0  0  0  0  0  0  0  0  0
    6.1800  -24.1610  -16.3210 H   0  0  0  0  0  0  0  0  0  0  0  0
    7.1800  -24.4310  -14.9190 H   0  0  0  0  0  0  0  0  0  0  0  0
    6.9830  -26.4960  -13.0420 N   0  0  0  0  0  0  0  0  0  0  0  0
    6.7380  -27.5140  -12.2540 C   0  0  0  0  0  0  0  0  0  0  0  0
    7.7080  -25.7860  -12.9430 H   0  0  0  0  0  0  0  0  0  0  0  0
    2.5080  -30.9650   -2.6680 C   0  0  0  0  0  0  0  0  0  0  0  0
    3.2970  -30.4060   -1.5030 C   0  0  1  0  0  0  0  0  0  0  0  0
    2.4560  -29.5750   -0.7150 O   0  0  0  0  0  0  0  0  0  0  0  0
    2.7520  -29.5890    0.1880 H   0  0  0  0  0  0  0  0  0  0  0  0
    3.8700  -31.5450   -0.6740 C   0  0  2  0  0  0  0  0  0  0  0  0
    5.3190  -31.3610   -0.2050 C   0  0  1  0  0  0  0  0  0  0  0  0
    5.9790  -30.3790   -0.9510 O   0  0  0  0  0  0  0  0  0  0  0  0
    6.8900  -30.6040   -1.0950 H   0  0  0  0  0  0  0  0  0  0  0  0
    5.3400  -30.9920    1.2750 C   0  0  0  0  0  0  0  0  0  0  0  0
    6.0040  -32.0340    2.0620 N   0  0  0  0  0  0  0  0  0  0  0  0
    5.2500  -32.7380    2.9230 C   0  0  0  0  0  0  0  0  0  0  0  0
    3.9740  -32.4880    2.9920 N   0  0  0  0  0  0  0  0  0  0  0  0
    5.9230  -33.7540    3.6820 C   0  0  0  0  0  0  0  0  0  0  0  0
    3.2550  -33.1490    3.8470 C   0  0  0  0  0  0  0  0  0  0  0  0
    3.5480  -31.7860    2.3870 H   0  0  0  0  0  0  0  0  0  0  0  0
    2.0890  -32.9140    3.9620 O   0  0  0  0  0  0  0  0  0  0  0  0
    3.7940  -34.1480    4.6110 N   0  0  0  0  0  0  0  0  0  0  0  0
    5.1250  -34.4830    4.5410 C   0  0  0  0  0  0  0  0  0  0  0  0
    3.1880  -34.6600    5.2520 H   0  0  0  0  0  0  0  0  0  0  0  0
    5.5700  -35.3820    5.2290 O   0  0  0  0  0  0  0  0  0  0  0  0
    7.1880  -34.0170    3.6100 N   0  0  0  0  0  0  0  0  0  0  0  0
    7.9500  -33.2250    2.8020 C   0  0  0  0  0  0  0  0  0  0  0  0
    7.6000  -34.7860    4.1390 H   0  0  0  0  0  0  0  0  0  0  0  0
    9.3360  -33.4470    2.7570 C   0  0  0  0  0  0  0  0  0  0  0  0
    7.3780  -32.2250    1.9950 C   0  0  0  0  0  0  0  0  0  0  0  0
   10.1520  -32.6580    1.9930 C   0  0  0  0  0  0  0  0  0  0  0  0
    9.5820  -31.6460    1.1860 C   0  0  0  0  0  0  0  0  0  0  0  0
   11.6430  -32.8810    1.9890 C   0  0  0  0  0  0  0  0  0  0  0  0
   10.4500  -30.7940    0.3050 C   0  0  0  0  0  0  0  0  0  0  0  0
    8.2160  -31.4610    1.1770 C   0  0  0  0  0  0  0  0  0  0  0  0
    3.7160  -32.7150   -1.4230 O   0  0  0  0  0  0  0  0  0  0  0  0
    4.5390  -33.1760   -1.5280 H   0  0  0  0  0  0  0  0  0  0  0  0
  1  2  1  0  0  0  0
  1 35  1  0  0  0  0
  2  5  1  0  0  0  0
  2  3  2  6  0  0  0
  2  4  1  0  0  0  0
  5  6  1  0  0  0  0
  6  9  1  0  0  0  0
  6  7  2  1  0  0  0
  6  8  1  0  0  0  0
  9 10  1  0  0  0  0
 11 10  1  1  0  0  0
 11 15  1  0  0  0  0
 11 12  1  0  0  0  0
 12 13  1  0  0  0  0
 12 16  1  6  0  0  0
 13 18  1  6  0  0  0
 13 14  1  0  0  0  0
 14 20  1  0  0  0  0
 14 15  1  1  0  0  0
 16 17  1  0  0  0  0
 18 19  1  0  0  0  0
 20 21  1  0  0  0  0
 20 33  1  1  0  0  0
 21 22  1  0  0  0  0
 21 23  1  6  0  0  0
 22 24  1  0  0  0  0
 22 25  1  0  0  0  0
 23 27  2  0  0  0  0
 23 32  1  0  0  0  0
 24 26  1  0  0  0  0
 26 28  1  0  0  0  0
 26 27  1  0  0  0  0
 27 29  1  0  0  0  0
 29 30  1  0  0  0  0
 29 31  1  0  0  0  0
 32 34  1  0  0  0  0
 32 33  1  0  0  0  0
 36 35  1  6  0  0  0
 36 37  1  0  0  0  0
 36 39  1  0  0  0  0
 37 38  1  0  0  0  0
 39 65  1  6  0  0  0
 39 40  1  0  0  0  0
 40 41  1  0  0  0  0
 40 43  1  1  0  0  0
 41 42  1  0  0  0  0
 43 44  1  0  0  0  0
 44 59  1  0  0  0  0
 44 45  1  0  0  0  0
 45 46  1  0  0  0  0
 45 47  2  0  0  0  0
 46 49  1  0  0  0  0
 46 48  1  0  0  0  0
 47 55  1  0  0  0  0
 47 52  1  0  0  0  0
 48 50  2  0  0  0  0
 48 51  1  0  0  0  0
 51 52  1  0  0  0  0
 51 53  1  0  0  0  0
 52 54  2  0  0  0  0
 55 56  1  0  0  0  0
 55 57  1  0  0  0  0
 56 59  2  0  0  0  0
 56 58  1  0  0  0  0
 58 60  2  0  0  0  0
 59 64  1  0  0  0  0
 60 61  1  0  0  0  0
 60 62  1  0  0  0  0
 61 63  1  0  0  0  0
 61 64  2  0  0  0  0
 65 66  1  0  0  0  0
M  END
>  <MODEL>
1

>  <REMARK>
 VINA RESULT:   -11.453      0.000      0.000
 INTER + INTRA:         -23.178
 INTER:                 -21.832
 INTRA:                  -1.346
 UNBOUND:                -1.346
  18 active torsions:
  status: ('A' for Active; 'I' for Inactive)
    1  A    between atoms: P_1  and  O_4 
    2  A    between atoms: P_1  and  O_66 
    3  A    between atoms: O_4  and  C_5 
    4  A    between atoms: C_5  and  C_6 
    5  A    between atoms: C_8  and  O_9 
    6  A    between atoms: C_11  and  O_12 
    7  A    between atoms: C_14  and  N_15 
    8  A    between atoms: N_49  and  C_51 
    9  A    between atoms: C_51  and  C_52 
   10  A    between atoms: C_52  and  O_53 
   11  A    between atoms: C_52  and  C_55 
   12  A    between atoms: C_55  and  C_58 
   13  A    between atoms: C_55  and  O_56 
   14  A    between atoms: C_58  and  O_59 
   15  A    between atoms: C_58  and  C_61 
   16  A    between atoms: C_61  and  O_62 
   17  A    between atoms: O_62  and  P_63 
   18  A    between atoms: P_63  and  O_66 

>  <COMPND>
    /home/daniil/Downloads/ml_docking_review/databases/Vina/outputs/7EPV_FDA/7EPV_FDA.pdbqt 

>  <AUTHOR>
    GENERATED BY OPEN BABEL 3.2.1

>  <MASTER>
        0    0    0    0    0    0    0    0   66    0   66    0

$$$$
