../../databases/Vina/outputs/8EX2_Q2Q/8EX2_Q2Q1.pdb
 OpenBabel08242616453D

 28 31  0  0  1  0  0  0  0  0999 V2000
   21.5280   12.3460   21.5820 C   0  0  0  0  0  0  0  0  0  0  0  0
   22.5850   12.6710   20.7170 C   0  0  0  0  0  0  0  0  0  0  0  0
   23.7050   11.8170   20.4910 C   0  0  0  0  0  0  0  0  0  0  0  0
   22.5760   10.2860   22.0400 C   0  0  1  0  0  0  0  0  0  0  0  0
   22.8730    8.9460   22.5950 C   0  0  0  0  0  0  0  0  0  0  0  0
   24.0670    8.6040   22.0250 C   0  0  0  0  0  0  0  0  0  0  0  0
   23.6400   10.5790   21.1740 N   0  0  0  0  0  0  0  0  0  0  0  0
   21.5510   11.1210   22.2260 N   0  0  0  0  0  0  0  0  0  0  0  0
   20.7840   10.8560   22.8430 H   0  0  0  0  0  0  0  0  0  0  0  0
   24.5520    9.5520   21.1900 N   0  0  0  0  0  0  0  0  0  0  0  0
   25.4280    9.5110   20.6690 H   0  0  0  0  0  0  0  0  0  0  0  0
   24.6970   11.9680   19.7770 O   0  0  0  0  0  0  0  0  0  0  0  0
   20.3220   13.2730   21.7970 C   0  0  0  0  0  0  0  0  0  0  0  0
   19.3140   13.0730   22.7770 C   0  0  0  0  0  0  0  0  0  0  0  0
   18.2420   13.9760   22.9820 C   0  0  0  0  0  0  0  0  0  0  0  0
   18.1330   15.1260   22.2040 C   0  0  0  0  0  0  0  0  0  0  0  0
   19.1200   15.3790   21.2330 C   0  0  0  0  0  0  0  0  0  0  0  0
   20.1880   14.4890   21.0520 C   0  0  0  0  0  0  0  0  0  0  0  0
   22.0680    8.2210   23.5760 C   0  0  0  0  0  0  0  0  0  0  0  0
   21.1130    7.2590   23.1240 C   0  0  0  0  0  0  0  0  0  0  0  0
   20.2900    6.5280   24.0130 C   0  0  0  0  0  0  0  0  0  0  0  0
   20.3940    6.7500   25.3960 C   0  0  0  0  0  0  0  0  0  0  0  0
   21.2980    7.7370   25.8670 C   0  0  0  0  0  0  0  0  0  0  0  0
   22.1180    8.4600   24.9680 C   0  0  0  0  0  0  0  0  0  0  0  0
   24.8750    7.3210   22.1670 C   0  0  0  0  0  0  0  0  0  0  0  0
   26.1290    7.6380   22.5080 F   0  0  0  0  0  0  0  0  0  0  0  0
   24.8720    6.6450   21.0130 F   0  0  0  0  0  0  0  0  0  0  0  0
   24.3530    6.4920   23.1220 F   0  0  0  0  0  0  0  0  0  0  0  0
  1  2  2  0  0  0  0
  1 13  1  0  0  0  0
  1  8  1  0  0  0  0
  2  3  1  0  0  0  0
  3 12  2  0  0  0  0
  3  7  1  0  0  0  0
  4  7  1  0  0  0  0
  4  8  1  0  0  0  0
  4  5  1  6  0  0  0
  5  6  2  0  0  0  0
  5 19  1  0  0  0  0
  6 10  1  0  0  0  0
  6 25  1  0  0  0  0
  7 10  1  0  0  0  0
  8  9  1  0  0  0  0
 10 11  1  0  0  0  0
 13 18  2  0  0  0  0
 13 14  1  0  0  0  0
 14 15  2  0  0  0  0
 15 16  1  0  0  0  0
 16 17  2  0  0  0  0
 17 18  1  0  0  0  0
 19 20  2  0  0  0  0
 19 24  1  0  0  0  0
 20 21  1  0  0  0  0
 21 22  2  0  0  0  0
 22 23  1  0  0  0  0
 23 24  2  0  0  0  0
 25 27  1  0  0  0  0
 25 26  1  0  0  0  0
 25 28  1  0  0  0  0
M  END
>  <MODEL>
1

>  <REMARK>
 VINA RESULT:   -10.114      0.000      0.000
 INTER + INTRA:         -12.726
 INTER:                 -11.888
 INTRA:                  -0.838
 UNBOUND:                -0.838
  3 active torsions:
  status: ('A' for Active; 'I' for Inactive)
    1  A    between atoms: C_4  and  C_7 
    2  A    between atoms: C_11  and  C_14 
    3  A    between atoms: C_12  and  C_13 

>  <COMPND>
    /home/daniil/Downloads/ml_docking_review/databases/Vina/outputs/8EX2_Q2Q/8EX2_Q2Q.pdbqt 

>  <AUTHOR>
    GENERATED BY OPEN BABEL 3.2.1

>  <MASTER>
        0    0    0    0    0    0    0    0   28    0   28    0

$$$$
