../../databases/Vina/outputs/6WTN_RXT/6WTN_RXT1.pdb
 OpenBabel08242616453D

 27 30  0  0  1  0  0  0  0  0999 V2000
   23.0520   12.2660    6.7210 C   0  0  0  0  0  0  0  0  0  0  0  0
   23.6210   12.1000    8.0500 C   0  0  0  0  0  0  0  0  0  0  0  0
   24.1220   12.0030    9.0670 N   0  0  0  0  0  0  0  0  0  0  0  0
   21.5260   12.1380    6.7850 C   0  0  2  0  0  0  0  0  0  0  0  0
   21.0090   12.2470    5.3630 C   0  0  0  0  0  0  0  0  0  0  0  0
   21.6270   11.1130    4.5260 C   0  0  0  0  0  0  0  0  0  0  0  0
   20.4800   10.0590    4.2100 C   0  0  0  0  0  0  0  0  0  0  0  0
   19.1940   10.6060    4.9700 C   0  0  0  0  0  0  0  0  0  0  0  0
   19.4900   12.0460    5.2980 C   0  0  0  0  0  0  0  0  0  0  0  0
   21.0970   13.2830    7.6050 N   0  0  0  0  0  0  0  0  0  0  0  0
   21.0510   14.6100    7.1840 N   0  0  0  0  0  0  0  0  0  0  0  0
   20.6750   15.3550    8.2250 C   0  0  0  0  0  0  0  0  0  0  0  0
   21.2660   14.9510    6.2470 H   0  0  0  0  0  0  0  0  0  0  0  0
   20.4790   14.5260    9.3030 C   0  0  0  0  0  0  0  0  0  0  0  0
   20.7790   13.2450    8.9160 C   0  0  0  0  0  0  0  0  0  0  0  0
   20.1280   14.9600   10.6790 C   0  0  1  0  0  0  0  0  0  0  0  0
   19.7410   14.1250   11.7750 C   0  0  0  0  0  0  0  0  0  0  0  0
   19.5060   12.7750   11.8940 C   0  0  0  0  0  0  0  0  0  0  0  0
   19.5140   14.6880   12.9910 C   0  0  0  0  0  0  0  0  0  0  0  0
   19.1320   12.5380   13.1930 C   0  0  0  0  0  0  0  0  0  0  0  0
   19.1490   13.7150   13.8510 N   0  0  0  0  0  0  0  0  0  0  0  0
   18.9230   13.8460   14.8370 H   0  0  0  0  0  0  0  0  0  0  0  0
   19.6790   16.0140   13.1950 N   0  0  0  0  0  0  0  0  0  0  0  0
   20.0510   16.7230   12.1400 C   0  0  0  0  0  0  0  0  0  0  0  0
   19.5270   16.4420   14.1080 H   0  0  0  0  0  0  0  0  0  0  0  0
   20.3050   16.2570   10.8910 N   0  0  0  0  0  0  0  0  0  0  0  0
   20.6190   16.8790   10.1460 H   0  0  0  0  0  0  0  0  0  0  0  0
  1  2  1  0  0  0  0
  2  3  3  0  0  0  0
  4  1  1  6  0  0  0
  4  5  1  0  0  0  0
  4 10  1  0  0  0  0
  5  6  1  0  0  0  0
  5  9  1  0  0  0  0
  6  7  1  0  0  0  0
  7  8  1  0  0  0  0
  8  9  1  0  0  0  0
 10 11  1  0  0  0  0
 10 15  1  0  0  0  0
 11 13  1  0  0  0  0
 11 12  1  0  0  0  0
 12 14  1  0  0  0  0
 14 15  2  0  0  0  0
 16 14  1  1  0  0  0
 16 26  1  0  0  0  0
 16 17  1  0  0  0  0
 17 18  1  0  0  0  0
 17 19  2  0  0  0  0
 18 20  2  0  0  0  0
 19 23  1  0  0  0  0
 19 21  1  0  0  0  0
 20 21  1  0  0  0  0
 21 22  1  0  0  0  0
 23 24  1  0  0  0  0
 23 25  1  0  0  0  0
 24 26  1  0  0  0  0
 26 27  1  0  0  0  0
M  END
>  <MODEL>
1

>  <REMARK>
 VINA RESULT:    -8.930      0.000      0.000
 INTER + INTRA:         -11.349
 INTER:                 -11.018
 INTRA:                  -0.330
 UNBOUND:                -0.330
  4 active torsions:
  status: ('A' for Active; 'I' for Inactive)
    1  A    between atoms: C_5  and  C_6 
    2  A    between atoms: C_6  and  C_7 
    3  A    between atoms: C_6  and  N_10 
    4  A    between atoms: C_15  and  C_16 

>  <COMPND>
    /home/daniil/Downloads/ml_docking_review/databases/Vina/outputs/6WTN_RXT/6WTN_RXT.pdbqt 

>  <AUTHOR>
    GENERATED BY OPEN BABEL 3.2.1

>  <MASTER>
        0    0    0    0    0    0    0    0   27    0   27    0

$$$$
