../../databases/Vina/outputs/7MY1_IPE/7MY1_IPE1.pdb
 OpenBabel08242616453D

 14 13  0  0  0  0  0  0  0  0999 V2000
   10.2920    8.1750   16.4500 P   0  0  2  0  0  0  0  0  0  0  0  0
    9.3160    9.1340   15.8490 O   0  0  0  0  0  0  0  0  0  0  0  0
   11.2910    8.7030   17.4240 O   0  0  0  0  0  0  0  0  0  0  0  0
   11.0980    7.4140   15.2710 O   0  0  0  0  0  0  0  0  0  0  0  0
   12.4330    6.4820   15.3460 P   0  0  0  0  0  0  0  0  0  0  0  0
   13.5570    7.4360   14.9760 O   0  0  0  0  0  0  0  0  0  0  0  0
   12.2410    5.3560   14.3210 O   0  0  0  0  0  0  0  0  0  0  0  0
   12.5230    5.9430   16.7700 O   0  0  0  0  0  0  0  0  0  0  0  0
    9.5360    6.9750   17.2070 O   0  0  0  0  0  0  0  0  0  0  0  0
    9.5230    6.9190   18.6520 C   0  0  0  0  0  0  0  0  0  0  0  0
    8.2860    6.1910   19.0860 C   0  0  0  0  0  0  0  0  0  0  0  0
    7.1570    7.0960   19.5090 C   0  0  0  0  0  0  0  0  0  0  0  0
    7.5390    8.5250   19.8340 C   0  0  0  0  0  0  0  0  0  0  0  0
    5.9170    6.6410   19.6180 C   0  0  0  0  0  0  0  0  0  0  0  0
  1  4  1  0  0  0  0
  1  2  2  6  0  0  0
  1  9  1  0  0  0  0
  1  3  1  0  0  0  0
  4  5  1  0  0  0  0
  5  7  2  0  0  0  0
  5  6  1  0  0  0  0
  5  8  1  0  0  0  0
  9 10  1  0  0  0  0
 10 11  1  0  0  0  0
 11 12  1  0  0  0  0
 12 14  2  0  0  0  0
 12 13  1  0  0  0  0
M  END
>  <MODEL>
1

>  <REMARK>
 VINA RESULT:    -5.466      0.000      0.000
 INTER + INTRA:          -7.619
 INTER:                  -7.383
 INTRA:                  -0.237
 UNBOUND:                -0.237
  6 active torsions:
  status: ('A' for Active; 'I' for Inactive)
    1  A    between atoms: C_1  and  C_3 
    2  A    between atoms: C_1  and  O_2 
    3  A    between atoms: O_2  and  P_7 
    4  A    between atoms: C_3  and  C_4 
    5  A    between atoms: P_7  and  O_10 
    6  A    between atoms: O_10  and  P_11 

>  <COMPND>
    /home/daniil/Downloads/ml_docking_review/databases/Vina/outputs/7MY1_IPE/7MY1_IPE.pdbqt 

>  <AUTHOR>
    GENERATED BY OPEN BABEL 3.2.1

>  <MASTER>
        0    0    0    0    0    0    0    0   14    0   14    0

$$$$
