../../databases/Vina/outputs/7WPW_F15/7WPW_F151.pdb
 OpenBabel08242616453D

 17 16  0  0  0  0  0  0  0  0999 V2000
    7.8220  -24.9990   -2.1870 C   0  0  0  0  0  0  0  0  0  0  0  0
    7.7080  -23.8910   -1.1800 C   0  0  0  0  0  0  0  0  0  0  0  0
    6.4680  -23.0140   -1.2970 C   0  0  0  0  0  0  0  0  0  0  0  0
    6.7480  -21.5380   -1.2070 C   0  0  0  0  0  0  0  0  0  0  0  0
    6.1780  -20.9050    0.0490 C   0  0  0  0  0  0  0  0  0  0  0  0
    6.2310  -21.7620    1.2700 C   0  0  0  0  0  0  0  0  0  0  0  0
    7.5650  -21.8890    1.9530 C   0  0  0  0  0  0  0  0  0  0  0  0
    8.2600  -20.8260    2.0750 O   0  0  0  0  0  0  0  0  0  0  0  0
    7.9400  -23.0040    2.3840 O   0  0  0  0  0  0  0  0  0  0  0  0
    8.0160  -24.4970   -3.5870 C   0  0  0  0  0  0  0  0  0  0  0  0
    6.7510  -24.7410   -4.3820 C   0  0  0  0  0  0  0  0  0  0  0  0
    6.4210  -23.7190   -5.4040 C   0  0  0  0  0  0  0  0  0  0  0  0
    6.3430  -22.3440   -4.9110 C   0  0  0  0  0  0  0  0  0  0  0  0
    6.5230  -21.2640   -5.9170 C   0  0  0  0  0  0  0  0  0  0  0  0
    7.0710  -20.1090   -5.1640 C   0  0  0  0  0  0  0  0  0  0  0  0
    6.2640  -18.8260   -5.1750 C   0  0  0  0  0  0  0  0  0  0  0  0
    5.9990  -18.3930   -3.7500 C   0  0  0  0  0  0  0  0  0  0  0  0
  1 10  1  0  0  0  0
  1  2  1  0  0  0  0
  2  3  1  0  0  0  0
  3  4  1  0  0  0  0
  4  5  1  0  0  0  0
  5  6  1  0  0  0  0
  6  7  1  0  0  0  0
  7  8  2  0  0  0  0
  7  9  1  0  0  0  0
 10 11  1  0  0  0  0
 11 12  1  0  0  0  0
 12 13  1  0  0  0  0
 13 14  1  0  0  0  0
 14 15  1  0  0  0  0
 15 16  1  0  0  0  0
 16 17  1  0  0  0  0
M  END
>  <MODEL>
1

>  <REMARK>
 VINA RESULT:    -5.972      0.000      0.000
 INTER + INTRA:         -11.790
 INTER:                 -10.510
 INTRA:                  -1.280
 UNBOUND:                -1.280
  13 active torsions:
  status: ('A' for Active; 'I' for Inactive)
    1  A    between atoms: C_1  and  C_4 
    2  A    between atoms: C_4  and  C_5 
    3  A    between atoms: C_5  and  C_8 
    4  A    between atoms: C_6  and  C_7 
    5  A    between atoms: C_6  and  C_8 
    6  A    between atoms: C_7  and  C_9 
    7  A    between atoms: C_9  and  C_10 
    8  A    between atoms: C_10  and  C_11 
    9  A    between atoms: C_11  and  C_12 
   10  A    between atoms: C_12  and  C_13 
   11  A    between atoms: C_13  and  C_14 
   12  A    between atoms: C_14  and  C_15 
   13  A    between atoms: C_15  and  C_16 

>  <COMPND>
    /home/daniil/Downloads/ml_docking_review/databases/Vina/outputs/7WPW_F15/7WPW_F15.pdbqt 

>  <AUTHOR>
    GENERATED BY OPEN BABEL 3.2.1

>  <MASTER>
        0    0    0    0    0    0    0    0   17    0   17    0

$$$$
