../../databases/Vina/outputs/7OLT_58J/7OLT_58J1.pdb
 OpenBabel08242616453D

 24 26  0  0  0  0  0  0  0  0999 V2000
  -25.0750  -20.2730   -3.3940 C   0  0  0  0  0  0  0  0  0  0  0  0
  -25.5790  -22.5590   -3.6640 C   0  0  0  0  0  0  0  0  0  0  0  0
  -26.0750  -22.6260   -5.0510 C   0  0  0  0  0  0  0  0  0  0  0  0
  -22.7900  -19.7350   -6.9160 C   0  0  0  0  0  0  0  0  0  0  0  0
  -26.6960  -23.6060   -5.4700 O   0  0  0  0  0  0  0  0  0  0  0  0
  -25.6920  -21.7250   -5.9640 N   0  0  0  0  0  0  0  0  0  0  0  0
  -26.2070  -21.7150   -6.8450 H   0  0  0  0  0  0  0  0  0  0  0  0
  -24.6670  -20.8050   -5.8290 C   0  0  0  0  0  0  0  0  0  0  0  0
  -24.2930  -20.1630   -4.6590 C   0  0  0  0  0  0  0  0  0  0  0  0
  -23.8880  -20.5800   -6.9510 C   0  0  0  0  0  0  0  0  0  0  0  0
  -22.4420  -19.1040   -5.7450 C   0  0  0  0  0  0  0  0  0  0  0  0
  -23.2030  -19.3070   -4.6150 C   0  0  0  0  0  0  0  0  0  0  0  0
  -25.6340  -21.4060   -2.9920 N   0  0  0  0  0  0  0  0  0  0  0  0
  -26.4720  -21.3870   -1.7980 C   0  0  0  0  0  0  0  0  0  0  0  0
  -25.2370  -19.2180   -2.7560 O   0  0  0  0  0  0  0  0  0  0  0  0
  -25.0490  -23.7060   -3.1590 C   0  0  0  0  0  0  0  0  0  0  0  0
  -24.2820  -23.8820   -1.8810 C   0  0  0  0  0  0  0  0  0  0  0  0
  -24.3070  -25.1090   -1.2360 C   0  0  0  0  0  0  0  0  0  0  0  0
  -23.6440  -25.3080   -0.0230 C   0  0  0  0  0  0  0  0  0  0  0  0
  -22.9080  -24.2780    0.5470 C   0  0  0  0  0  0  0  0  0  0  0  0
  -22.8340  -23.0540   -0.1080 C   0  0  0  0  0  0  0  0  0  0  0  0
  -23.4980  -22.8620   -1.3220 C   0  0  0  0  0  0  0  0  0  0  0  0
  -22.2570  -24.5010    1.7330 O   0  0  0  0  0  0  0  0  0  0  0  0
  -21.7840  -23.4130    2.5360 C   0  0  0  0  0  0  0  0  0  0  0  0
  1  9  1  0  0  0  0
  1 13  1  0  0  0  0
  1 15  2  0  0  0  0
  2  3  1  0  0  0  0
  2 16  2  0  0  0  0
  2 13  1  0  0  0  0
  3  6  1  0  0  0  0
  3  5  2  0  0  0  0
  4 10  2  0  0  0  0
  4 11  1  0  0  0  0
  6  7  1  0  0  0  0
  6  8  1  0  0  0  0
  8 10  1  0  0  0  0
  8  9  2  0  0  0  0
  9 12  1  0  0  0  0
 11 12  2  0  0  0  0
 13 14  1  0  0  0  0
 16 17  1  0  0  0  0
 17 22  2  0  0  0  0
 17 18  1  0  0  0  0
 18 19  2  0  0  0  0
 19 20  1  0  0  0  0
 20 21  2  0  0  0  0
 20 23  1  0  0  0  0
 21 22  1  0  0  0  0
 23 24  1  0  0  0  0
M  END
>  <MODEL>
1

>  <REMARK>
 VINA RESULT:    -9.244      0.000      0.000
 INTER + INTRA:         -10.733
 INTER:                 -10.865
 INTRA:                   0.131
 UNBOUND:                 0.131
  3 active torsions:
  status: ('A' for Active; 'I' for Inactive)
    1  A    between atoms: C_2  and  C_3 
    2  A    between atoms: C_3  and  C_20 
    3  A    between atoms: C_22  and  O_23 

>  <COMPND>
    /home/daniil/Downloads/ml_docking_review/databases/Vina/outputs/7OLT_58J/7OLT_58J.pdbqt 

>  <AUTHOR>
    GENERATED BY OPEN BABEL 3.2.1

>  <MASTER>
        0    0    0    0    0    0    0    0   24    0   24    0

$$$$
