../../databases/Vina/outputs/6XUM_30L/6XUM_30L1.pdb
 OpenBabel08242616453D

 26 27  0  0  0  0  0  0  0  0999 V2000
   82.8630    8.9220   66.7780 N   0  0  0  0  0  0  0  0  0  0  0  0
   83.3350    8.6220   65.9250 H   0  0  0  0  0  0  0  0  0  0  0  0
   83.0680   10.1580   67.2360 C   0  0  0  0  0  0  0  0  0  0  0  0
   82.4950   10.5880   68.2340 O   0  0  0  0  0  0  0  0  0  0  0  0
   84.0180   11.0150   66.4620 C   0  0  0  0  0  0  0  0  0  0  0  0
   85.3770   10.7420   66.2850 C   0  0  0  0  0  0  0  0  0  0  0  0
   86.1670   11.5200   65.4580 C   0  0  0  0  0  0  0  0  0  0  0  0
   85.5790   12.6020   64.8480 C   0  0  0  0  0  0  0  0  0  0  0  0
   86.3510   13.3840   64.0560 F   0  0  0  0  0  0  0  0  0  0  0  0
   84.2670   12.9400   65.0170 C   0  0  0  0  0  0  0  0  0  0  0  0
   83.4860   12.1370   65.8250 C   0  0  0  0  0  0  0  0  0  0  0  0
   85.8980    9.7040   67.0190 O   0  0  0  0  0  0  0  0  0  0  0  0
   86.5720    8.7110   66.2610 C   0  0  0  0  0  0  0  0  0  0  0  0
   85.6050    7.6100   65.9010 C   0  0  0  0  0  0  0  0  0  0  0  0
   85.0050    7.6140   64.8320 O   0  0  0  0  0  0  0  0  0  0  0  0
   85.3960    6.7550   66.8580 O   0  0  0  0  0  0  0  0  0  0  0  0
   81.9820    7.9920   67.4660 C   0  0  0  0  0  0  0  0  0  0  0  0
   80.9610    7.3280   66.5790 C   0  0  0  0  0  0  0  0  0  0  0  0
   80.1020    6.3840   67.1260 C   0  0  0  0  0  0  0  0  0  0  0  0
   79.1710    5.7780   66.3140 C   0  0  0  0  0  0  0  0  0  0  0  0
   79.0460    6.0680   64.9700 C   0  0  0  0  0  0  0  0  0  0  0  0
   79.8980    7.0170   64.4350 C   0  0  0  0  0  0  0  0  0  0  0  0
   80.8480    7.6370   65.2320 C   0  0  0  0  0  0  0  0  0  0  0  0
   78.3180    4.7520   66.9000 N   0  0  0  0  0  0  0  0  0  0  0  0
   78.3050    4.6400   68.1190 O   0  0  0  0  0  0  0  0  0  0  0  0
   77.6520    4.0540   66.1530 O   0  0  0  0  0  0  0  0  0  0  0  0
  1  2  1  0  0  0  0
  1  3  1  0  0  0  0
  1 17  1  0  0  0  0
  3  5  1  0  0  0  0
  3  4  2  0  0  0  0
  5 11  2  0  0  0  0
  5  6  1  0  0  0  0
  6  7  2  0  0  0  0
  6 12  1  0  0  0  0
  7  8  1  0  0  0  0
  8  9  1  0  0  0  0
  8 10  2  0  0  0  0
 10 11  1  0  0  0  0
 12 13  1  0  0  0  0
 13 14  1  0  0  0  0
 14 15  2  0  0  0  0
 14 16  1  0  0  0  0
 17 18  1  0  0  0  0
 18 23  2  0  0  0  0
 18 19  1  0  0  0  0
 19 20  2  0  0  0  0
 20 21  1  0  0  0  0
 20 24  1  0  0  0  0
 21 22  2  0  0  0  0
 22 23  1  0  0  0  0
 24 26  2  0  0  0  0
 24 25  2  0  0  0  0
M  END
>  <MODEL>
1

>  <REMARK>
 VINA RESULT:    -9.831      0.000      0.000
 INTER + INTRA:         -15.226
 INTER:                 -13.854
 INTRA:                  -1.372
 UNBOUND:                -1.372
  7 active torsions:
  status: ('A' for Active; 'I' for Inactive)
    1  A    between atoms: N_1  and  C_3 
       I    between atoms: N_1  and  C_13 
    2  A    between atoms: C_3  and  C_4 
    3  A    between atoms: C_6  and  N_7 
    4  A    between atoms: C_13  and  C_15 
    5  A    between atoms: C_21  and  O_22 
    6  A    between atoms: O_22  and  C_23 
    7  A    between atoms: C_23  and  C_24 

>  <COMPND>
    /home/daniil/Downloads/ml_docking_review/databases/Vina/outputs/6XUM_30L/6XUM_30L.pdbqt 

>  <AUTHOR>
    GENERATED BY OPEN BABEL 3.2.1

>  <MASTER>
        0    0    0    0    0    0    0    0   26    0   26    0

$$$$
