../../databases/Vina/outputs/7AFX_R9K/7AFX_R9K1.pdb
 OpenBabel08242616453D

 21 23  0  0  0  0  0  0  0  0999 V2000
  -24.3420    0.8230   61.7920 C   0  0  0  0  0  0  0  0  0  0  0  0
  -25.0090   -3.7380   63.0390 C   0  0  0  0  0  0  0  0  0  0  0  0
  -25.5620   -2.3260   63.0110 C   0  0  0  0  0  0  0  0  0  0  0  0
  -26.8080   -2.0570   63.5530 C   0  0  0  0  0  0  0  0  0  0  0  0
  -27.3180   -0.7580   63.5280 C   0  0  0  0  0  0  0  0  0  0  0  0
  -26.5850    0.2750   62.9570 C   0  0  0  0  0  0  0  0  0  0  0  0
  -25.3340    0.0010   62.4110 C   0  0  0  0  0  0  0  0  0  0  0  0
  -24.8200   -1.2880   62.4340 C   0  0  0  0  0  0  0  0  0  0  0  0
  -23.3070   -0.0620   61.4530 C   0  0  0  0  0  0  0  0  0  0  0  0
  -23.6180   -1.2860   61.8480 N   0  0  0  0  0  0  0  0  0  0  0  0
  -23.0260   -2.1080   61.7240 H   0  0  0  0  0  0  0  0  0  0  0  0
  -24.4880    2.2850   61.4720 C   0  0  0  0  0  0  0  0  0  0  0  0
  -24.7570    2.5960   60.1470 C   0  0  0  0  0  0  0  0  0  0  0  0
  -24.9380    3.9170   59.7490 C   0  0  0  0  0  0  0  0  0  0  0  0
  -24.8690    4.9290   60.6920 C   0  0  0  0  0  0  0  0  0  0  0  0
  -24.6210    4.6170   62.0160 C   0  0  0  0  0  0  0  0  0  0  0  0
  -24.4430    3.3030   62.4030 C   0  0  0  0  0  0  0  0  0  0  0  0
  -24.1380    2.9360   64.0660 Cl  0  0  0  0  0  0  0  0  0  0  0  0
  -22.0100    0.2900   60.7800 C   0  0  0  0  0  0  0  0  0  0  0  0
  -21.5890    1.4760   60.7440 O   0  0  0  0  0  0  0  0  0  0  0  0
  -21.3150   -0.6230   60.3030 O   0  0  0  0  0  0  0  0  0  0  0  0
  1  9  2  0  0  0  0
  1 12  1  0  0  0  0
  1  7  1  0  0  0  0
  2  3  1  0  0  0  0
  3  8  2  0  0  0  0
  3  4  1  0  0  0  0
  4  5  2  0  0  0  0
  5  6  1  0  0  0  0
  6  7  2  0  0  0  0
  7  8  1  0  0  0  0
  8 10  1  0  0  0  0
  9 19  1  0  0  0  0
  9 10  1  0  0  0  0
 10 11  1  0  0  0  0
 12 13  2  0  0  0  0
 12 17  1  0  0  0  0
 13 14  1  0  0  0  0
 14 15  2  0  0  0  0
 15 16  1  0  0  0  0
 16 17  2  0  0  0  0
 17 18  1  0  0  0  0
 19 21  2  0  0  0  0
 19 20  1  0  0  0  0
M  END
>  <MODEL>
1

>  <REMARK>
 VINA RESULT:   -10.202      0.000      0.000
 INTER + INTRA:         -11.870
 INTER:                 -11.395
 INTRA:                  -0.476
 UNBOUND:                -0.476
  2 active torsions:
  status: ('A' for Active; 'I' for Inactive)
    1  A    between atoms: C_1  and  C_12 
    2  A    between atoms: CA_11  and  C_16 

>  <COMPND>
    /home/daniil/Downloads/ml_docking_review/databases/Vina/outputs/7AFX_R9K/7AFX_R9K.pdbqt 

>  <AUTHOR>
    GENERATED BY OPEN BABEL 3.2.1

>  <MASTER>
        0    0    0    0    0    0    0    0   21    0   21    0

$$$$
