../../databases/Vina/outputs/7NLV_UJE/7NLV_UJE1.pdb
 OpenBabel08242616453D

 26 28  0  0  1  0  0  0  0  0999 V2000
   -9.4660  -10.4100   19.5780 C   0  0  0  0  0  0  0  0  0  0  0  0
   -8.0520   -9.9630   19.2320 C   0  0  0  0  0  0  0  0  0  0  0  0
   -6.9350  -10.6820   19.9760 C   0  0  0  0  0  0  0  0  0  0  0  0
   -5.5600  -10.0540   19.7810 C   0  0  1  0  0  0  0  0  0  0  0  0
   -4.4760  -10.6030   20.7480 C   0  0  1  0  0  0  0  0  0  0  0  0
   -4.4500  -12.0440   20.8150 N   0  0  0  0  0  0  0  0  0  0  0  0
   -3.1100  -10.2720   20.1400 C   0  0  1  0  0  0  0  0  0  0  0  0
   -3.2910  -12.5750   20.3570 C   0  0  0  0  0  0  0  0  0  0  0  0
   -5.2240  -12.6040   21.1700 H   0  0  0  0  0  0  0  0  0  0  0  0
   -2.9650  -13.7770   20.3530 O   0  0  0  0  0  0  0  0  0  0  0  0
   -2.4930  -11.5650   19.9740 N   0  0  0  0  0  0  0  0  0  0  0  0
   -1.5520  -11.6980   19.6050 H   0  0  0  0  0  0  0  0  0  0  0  0
   -3.3270   -9.5940   18.7890 C   0  0  0  0  0  0  0  0  0  0  0  0
   -4.8570  -10.2710   18.1040 S   0  0  0  0  0  0  0  0  0  0  0  0
  -10.4850   -9.3970   19.1650 C   0  0  0  0  0  0  0  0  0  0  0  0
  -10.4050   -8.0950   19.9310 C   0  0  0  0  0  0  0  0  0  0  0  0
  -10.7160   -6.9680   19.2680 N   0  0  0  0  0  0  0  0  0  0  0  0
  -10.9040   -7.0200   18.2670 H   0  0  0  0  0  0  0  0  0  0  0  0
  -10.0970   -8.0880   21.1200 O   0  0  0  0  0  0  0  0  0  0  0  0
  -10.7940   -5.6760   19.9330 C   0  0  1  0  0  0  0  0  0  0  0  0
   -9.5220   -4.8530   19.8660 C   0  0  0  0  0  0  0  0  0  0  0  0
   -9.9910   -3.4470   20.1760 C   0  0  0  0  0  0  0  0  0  0  0  0
  -11.4490   -3.4550   20.0190 N   0  0  0  0  0  4  0  0  0  0  0  0
  -11.8170   -4.7170   19.3600 C   0  0  0  0  0  0  0  0  0  0  0  0
  -11.9440   -3.3070   20.8980 H   0  0  0  0  0  0  0  0  0  0  0  0
  -11.8000   -2.6340   19.5280 H   0  0  0  0  0  0  0  0  0  0  0  0
  1 15  1  0  0  0  0
  1  2  1  0  0  0  0
  2  3  1  0  0  0  0
  4  3  1  6  0  0  0
  4 14  1  0  0  0  0
  4  5  1  0  0  0  0
  5  7  1  0  0  0  0
  5  6  1  6  0  0  0
  6  8  1  0  0  0  0
  6  9  1  0  0  0  0
  7 13  1  6  0  0  0
  7 11  1  0  0  0  0
  8 11  1  0  0  0  0
  8 10  2  0  0  0  0
 11 12  1  0  0  0  0
 13 14  1  0  0  0  0
 15 16  1  0  0  0  0
 16 17  1  0  0  0  0
 16 19  2  0  0  0  0
 17 18  1  0  0  0  0
 20 17  1  6  0  0  0
 20 24  1  0  0  0  0
 20 21  1  0  0  0  0
 21 22  1  0  0  0  0
 22 23  1  0  0  0  0
 23 24  1  0  0  0  0
 23 26  1  0  0  0  0
 23 25  1  0  0  0  0
M  END
>  <MODEL>
1

>  <REMARK>
 VINA RESULT:    -9.219      0.000      0.000
 INTER + INTRA:         -12.813
 INTER:                 -12.452
 INTRA:                  -0.361
 UNBOUND:                -0.361
  6 active torsions:
  status: ('A' for Active; 'I' for Inactive)
    1  A    between atoms: C_3  and  C_4 
       I    between atoms: C_3  and  N_18 
    2  A    between atoms: C_4  and  C_5 
    3  A    between atoms: C_5  and  C_6 
    4  A    between atoms: C_6  and  C_7 
    5  A    between atoms: C_7  and  C_8 
    6  A    between atoms: N_18  and  C_20 

>  <COMPND>
    /home/daniil/Downloads/ml_docking_review/databases/Vina/outputs/7NLV_UJE/7NLV_UJE.pdbqt 

>  <AUTHOR>
    GENERATED BY OPEN BABEL 3.2.1

>  <MASTER>
        0    0    0    0    0    0    0    0   26    0   26    0

$$$$
