../../databases/Vina/outputs/7QSW_CAP/7QSW_CAP1.pdb
 OpenBabel08242612033D

 24 23  0  0  1  0  0  0  0  0999 V2000
   79.2210   71.7350   37.4770 C   0  0  1  0  0  0  0  0  0  0  0  0
   79.4840   72.6860   36.3150 C   0  0  0  0  0  0  0  0  0  0  0  0
   79.8480   73.9140   36.8280 O   0  0  0  0  0  0  0  0  0  0  0  0
   81.4630   74.3980   36.4110 P   0  0  0  0  0  0  0  0  0  0  0  0
   82.2550   74.0180   37.6510 O   0  0  0  0  0  0  0  0  0  0  0  0
   81.4180   75.9090   36.1310 O   0  0  0  0  0  0  0  0  0  0  0  0
   81.7580   73.5290   35.1900 O   0  0  0  0  0  0  0  0  0  0  0  0
   77.7740   71.9630   38.0490 C   0  0  1  0  0  0  0  0  0  0  0  0
   76.6960   72.1860   36.9500 C   0  0  1  0  0  0  0  0  0  0  0  0
   75.5160   71.1670   37.1010 C   0  0  0  0  0  0  0  0  0  0  0  0
   74.8410   71.1370   35.8480 O   0  0  0  0  0  0  0  0  0  0  0  0
   73.2380   71.7060   35.8650 P   0  0  0  0  0  0  0  0  0  0  0  0
   72.8000   71.5730   34.4060 O   0  0  0  0  0  0  0  0  0  0  0  0
   73.2500   73.1150   36.4180 O   0  0  0  0  0  0  0  0  0  0  0  0
   72.5780   70.6850   36.7890 O   0  0  0  0  0  0  0  0  0  0  0  0
   76.1710   73.4840   37.0100 O   0  0  0  0  0  0  0  0  0  0  0  0
   76.0070   73.7470   37.9070 H   0  0  0  0  0  0  0  0  0  0  0  0
   77.4610   70.8760   38.8780 O   0  0  0  0  0  0  0  0  0  0  0  0
   77.8040   70.9890   39.7570 H   0  0  0  0  0  0  0  0  0  0  0  0
   79.3790   70.2680   36.9750 C   0  0  0  0  0  0  0  0  0  0  0  0
   79.8810   69.4590   37.7960 O   0  0  0  0  0  0  0  0  0  0  0  0
   79.0100   69.9640   35.8240 O   0  0  0  0  0  0  0  0  0  0  0  0
   80.1440   71.8980   38.5150 O   0  0  0  0  0  0  0  0  0  0  0  0
   80.8530   72.4840   38.2780 H   0  0  0  0  0  0  0  0  0  0  0  0
  1  2  1  6  0  0  0
  1 20  1  0  0  0  0
  1  8  1  0  0  0  0
  1 23  1  0  0  0  0
  2  3  1  0  0  0  0
  3  4  1  0  0  0  0
  4  7  2  0  0  0  0
  4  6  1  0  0  0  0
  4  5  1  0  0  0  0
  8  9  1  0  0  0  0
  8 18  1  6  0  0  0
  9 16  1  0  0  0  0
  9 10  1  1  0  0  0
 10 11  1  0  0  0  0
 11 12  1  0  0  0  0
 12 13  2  0  0  0  0
 12 14  1  0  0  0  0
 12 15  1  0  0  0  0
 16 17  1  0  0  0  0
 18 19  1  0  0  0  0
 20 22  2  0  0  0  0
 20 21  1  0  0  0  0
 23 24  1  0  0  0  0
M  END
>  <MODEL>
1

>  <REMARK>
 VINA RESULT:    -8.129      0.000      0.000
 INTER + INTRA:         -14.386
 INTER:                 -13.119
 INTRA:                  -1.267
 UNBOUND:                -1.267
  12 active torsions:
  status: ('A' for Active; 'I' for Inactive)
    1  A    between atoms: C_1  and  O_7 
    2  A    between atoms: C_1  and  C_2 
    3  A    between atoms: C_2  and  C_3 
    4  A    between atoms: C_2  and  C_6 
    5  A    between atoms: C_2  and  O_8 
    6  A    between atoms: C_3  and  C_4 
    7  A    between atoms: C_3  and  O_10 
    8  A    between atoms: C_4  and  C_5 
    9  A    between atoms: C_4  and  O_12 
   10  A    between atoms: C_5  and  O_14 
   11  A    between atoms: O_7  and  P_17 
   12  A    between atoms: O_14  and  P_18 

>  <COMPND>
    /home/daniil/Downloads/ml_docking_review/databases/Vina/outputs/7QSW_CAP/7QSW_CAP.pdbqt 

>  <AUTHOR>
    GENERATED BY OPEN BABEL 3.2.1

>  <MASTER>
        0    0    0    0    0    0    0    0   24    0   24    0

$$$$
