../../databases/Vina/outputs/7JXX_VP7/7JXX_VP71.pdb
 OpenBabel08242616453D

 31 34  0  0  1  0  0  0  0  0999 V2000
  174.7200   19.4490   47.5510 N   0  0  0  0  0  0  0  0  0  0  0  0
  173.8070   18.9960   47.5910 H   0  0  0  0  0  0  0  0  0  0  0  0
  176.9230   19.5700   46.6310 N   0  0  0  0  0  0  0  0  0  0  0  0
  177.6220   19.1860   45.9950 H   0  0  0  0  0  0  0  0  0  0  0  0
  175.6910   18.9980   46.7320 C   0  0  1  0  0  0  0  0  0  0  0  0
  177.2050   20.6520   47.3860 C   0  0  2  0  0  0  0  0  0  0  0  0
  178.5550   21.2250   47.2500 C   0  0  0  0  0  0  0  0  0  0  0  0
  179.5890   20.5580   46.4750 C   0  0  0  0  0  0  0  0  0  0  0  0
  179.6870   19.3570   45.7640 C   0  0  0  0  0  0  0  0  0  0  0  0
  182.0170   19.8720   45.2750 C   0  0  0  0  0  0  0  0  0  0  0  0
  180.7450   21.3610   46.5930 C   0  0  0  0  0  0  0  0  0  0  0  0
  177.0350   23.5840   48.5690 C   0  0  0  0  0  0  0  0  0  0  0  0
  176.4540   22.3200   49.1830 C   0  0  0  0  0  0  0  0  0  0  0  0
  181.9500   21.0490   45.9760 C   0  0  0  0  0  0  0  0  0  0  0  0
  179.1110   22.3950   47.7360 C   0  0  0  0  0  0  0  0  0  0  0  0
  178.5440   23.4820   48.5890 C   0  0  0  0  0  0  0  0  0  0  0  0
  176.2220   21.1450   48.2620 C   0  0  0  0  0  0  0  0  0  0  0  0
  175.0020   20.5080   48.3040 C   0  0  0  0  0  0  0  0  0  0  0  0
  180.9010   19.0400   45.1410 C   0  0  0  0  0  0  0  0  0  0  0  0
  180.4200   22.4520   47.3490 N   0  0  0  0  0  0  0  0  0  0  0  0
  181.0640   23.2040   47.5900 H   0  0  0  0  0  0  0  0  0  0  0  0
  181.0600   17.8590   44.3490 C   0  0  0  0  0  0  0  0  0  0  0  0
  181.2360   16.8810   43.6910 C   0  0  0  0  0  0  0  0  0  0  0  0
  181.3910   15.6720   42.8770 C   0  0  0  0  0  0  0  0  0  0  0  0
  180.9680   15.9400   41.4430 C   0  0  0  0  0  0  0  0  0  0  0  0
  180.6010   14.5200   43.4690 C   0  0  0  0  0  0  0  0  0  0  0  0
  182.7820   15.3020   42.8690 O   0  0  0  0  0  0  0  0  0  0  0  0
  183.1890   15.6810   42.0990 H   0  0  0  0  0  0  0  0  0  0  0  0
  175.4200   17.9130   45.9970 N   0  0  0  0  0  0  0  0  0  0  0  0
  174.8350   18.0140   45.1680 H   0  0  0  0  0  0  0  0  0  0  0  0
  175.8310   17.0290   46.2990 H   0  0  0  0  0  0  0  0  0  0  0  0
  1  5  1  0  0  0  0
  1  2  1  0  0  0  0
  1 18  1  0  0  0  0
  3  4  1  0  0  0  0
  3  5  1  0  0  0  0
  3  6  1  0  0  0  0
  5 29  1  1  0  0  0
  6  7  1  1  0  0  0
  6 17  1  0  0  0  0
  7  8  1  0  0  0  0
  7 15  2  0  0  0  0
  8  9  2  0  0  0  0
  8 11  1  0  0  0  0
  9 19  1  0  0  0  0
 10 19  2  0  0  0  0
 10 14  1  0  0  0  0
 11 14  2  0  0  0  0
 11 20  1  0  0  0  0
 12 16  1  0  0  0  0
 12 13  1  0  0  0  0
 13 17  1  0  0  0  0
 15 20  1  0  0  0  0
 15 16  1  0  0  0  0
 17 18  2  0  0  0  0
 19 22  1  0  0  0  0
 20 21  1  0  0  0  0
 22 23  3  0  0  0  0
 23 24  1  0  0  0  0
 24 25  1  0  0  0  0
 24 27  1  0  0  0  0
 24 26  1  0  0  0  0
 27 28  1  0  0  0  0
 29 30  1  0  0  0  0
 29 31  1  0  0  0  0
M  END
>  <MODEL>
1

>  <REMARK>
 VINA RESULT:   -10.006      0.000      0.000
 INTER + INTRA:         -12.014
 INTER:                 -11.760
 INTRA:                  -0.253
 UNBOUND:                -0.253
  4 active torsions:
  status: ('A' for Active; 'I' for Inactive)
    1  A    between atoms: C_5  and  N_25 
    2  A    between atoms: C_10  and  C_24 
    3  A    between atoms: C_16  and  C_17 
    4  A    between atoms: C_17  and  O_30 

>  <COMPND>
    /home/daniil/Downloads/ml_docking_review/databases/Vina/outputs/7JXX_VP7/7JXX_VP7.pdbqt 

>  <AUTHOR>
    GENERATED BY OPEN BABEL 3.2.1

>  <MASTER>
        0    0    0    0    0    0    0    0   31    0   31    0

$$$$
