../../databases/Vina/outputs/7K41_VUA/7K41_VUA1.pdb
 OpenBabel08242616453D

 25 27  0  0  1  0  0  0  0  0999 V2000
   -8.8250  -11.4380   12.4120 N   0  0  0  0  0  0  0  0  0  0  0  0
   -8.7750  -11.2960   13.4200 H   0  0  0  0  0  0  0  0  0  0  0  0
   -9.1220  -12.8890   10.5580 C   0  0  0  0  0  0  0  0  0  0  0  0
   -9.0460  -12.6540   11.9070 C   0  0  0  0  0  0  0  0  0  0  0  0
   -8.6710  -10.4130   11.5740 C   0  0  2  0  0  0  0  0  0  0  0  0
   -8.9730  -11.7730    9.7620 C   0  0  0  0  0  0  0  0  0  0  0  0
   -8.7570  -10.5420   10.2400 N   0  0  0  0  0  0  0  0  0  0  0  0
   -8.6610   -9.7380    9.6200 H   0  0  0  0  0  0  0  0  0  0  0  0
   -8.4070   -9.1860   12.1850 N   0  0  0  0  0  0  0  0  0  0  0  0
   -8.4740   -9.0580   13.1950 H   0  0  0  0  0  0  0  0  0  0  0  0
   -8.0340   -8.1120   11.2970 C   0  0  0  0  0  0  0  0  0  0  0  0
   -6.6310   -7.6460   11.7520 C   0  0  0  0  0  0  0  0  0  0  0  0
   -5.5790   -8.4550   11.0520 C   0  0  0  0  0  0  0  0  0  0  0  0
   -5.6270   -8.6590    9.6850 C   0  0  0  0  0  0  0  0  0  0  0  0
   -4.6780   -9.4260    9.0330 C   0  0  0  0  0  0  0  0  0  0  0  0
   -3.6550   -9.9990    9.7610 C   0  0  0  0  0  0  0  0  0  0  0  0
   -3.5930   -9.7950   11.1360 C   0  0  0  0  0  0  0  0  0  0  0  0
   -4.5510   -9.0310   11.7780 C   0  0  0  0  0  0  0  0  0  0  0  0
   -9.0400  -11.9350    8.3660 N   0  0  0  0  0  0  0  0  0  0  0  0
   -8.9530  -10.7760    7.4930 C   0  0  0  0  0  0  0  0  0  0  0  0
  -10.3070  -10.6550    6.8100 C   0  0  0  0  0  0  0  0  0  0  0  0
  -10.5120  -11.8980    5.9770 C   0  0  1  0  0  0  0  0  0  0  0  0
  -10.4660  -13.1440    6.8410 C   0  0  0  0  0  0  0  0  0  0  0  0
  -11.8470  -11.7870    5.3200 C   0  0  0  0  0  0  0  0  0  0  0  0
   -9.2090  -13.2180    7.6820 C   0  0  0  0  0  0  0  0  0  0  0  0
  1  5  1  0  0  0  0
  1  4  1  0  0  0  0
  1  2  1  0  0  0  0
  3  6  2  0  0  0  0
  3  4  1  0  0  0  0
  5  7  1  0  0  0  0
  5  9  1  6  0  0  0
  6 19  1  0  0  0  0
  6  7  1  0  0  0  0
  7  8  1  0  0  0  0
  9 11  1  0  0  0  0
  9 10  1  0  0  0  0
 11 12  1  0  0  0  0
 12 13  1  0  0  0  0
 13 14  2  0  0  0  0
 13 18  1  0  0  0  0
 14 15  1  0  0  0  0
 15 16  2  0  0  0  0
 16 17  1  0  0  0  0
 17 18  2  0  0  0  0
 19 20  1  0  0  0  0
 19 25  1  0  0  0  0
 20 21  1  0  0  0  0
 21 22  1  0  0  0  0
 22 24  1  1  0  0  0
 22 23  1  0  0  0  0
 23 25  1  0  0  0  0
M  END
>  <MODEL>
1

>  <REMARK>
 VINA RESULT:    -8.771      0.000      0.000
 INTER + INTRA:         -12.229
 INTER:                 -11.335
 INTRA:                  -0.895
 UNBOUND:                -0.895
  5 active torsions:
  status: ('A' for Active; 'I' for Inactive)
    1  A    between atoms: N_3  and  C_16 
    2  A    between atoms: C_8  and  C_12 
    3  A    between atoms: C_9  and  N_24 
    4  A    between atoms: C_12  and  C_21 
    5  A    between atoms: C_21  and  N_24 

>  <COMPND>
    /home/daniil/Downloads/ml_docking_review/databases/Vina/outputs/7K41_VUA/7K41_VUA.pdbqt 

>  <AUTHOR>
    GENERATED BY OPEN BABEL 3.2.1

>  <MASTER>
        0    0    0    0    0    0    0    0   25    0   25    0

$$$$
