../../databases/Vina/outputs/7AVI_S2Q/7AVI_S2Q1.pdb
 OpenBabel08242616453D

 32 34  0  0  1  0  0  0  0  0999 V2000
  -22.0360   11.2850    0.0040 C   0  0  0  0  0  0  0  0  0  0  0  0
  -21.1940   11.3810   -1.0380 N   0  0  0  0  0  0  0  0  0  0  0  0
  -20.4330   10.7060   -1.1120 H   0  0  0  0  0  0  0  0  0  0  0  0
  -23.1360   11.8260    0.0070 O   0  0  0  0  0  0  0  0  0  0  0  0
  -21.6070   10.4140    1.1420 C   0  0  0  0  0  0  0  0  0  0  0  0
  -20.3150    9.9100    1.1820 C   0  0  0  0  0  0  0  0  0  0  0  0
  -19.9410    9.0750    2.2190 C   0  0  0  0  0  0  0  0  0  0  0  0
  -20.8940    8.7760    3.1960 C   0  0  1  0  0  0  0  0  0  0  0  0
  -18.7440    8.3900    2.5910 C   0  0  1  0  0  0  0  0  0  0  0  0
  -20.2560    7.9310    4.1090 O   0  0  0  0  0  0  0  0  0  0  0  0
  -22.1290    9.2440    3.1820 N   0  0  0  0  0  0  0  0  0  0  0  0
  -18.9080    7.7110    3.6670 N   0  0  0  0  0  0  0  0  0  0  0  0
  -18.2100    7.1250    4.1240 H   0  0  0  0  0  0  0  0  0  0  0  0
  -22.4750   10.0420    2.1630 C   0  0  0  0  0  0  0  0  0  0  0  0
  -22.7940    9.0070    3.9190 H   0  0  0  0  0  0  0  0  0  0  0  0
  -17.4310    8.3820    1.8450 C   0  0  0  0  0  0  0  0  0  0  0  0
  -17.1510    7.0250    1.2280 C   0  0  0  0  0  0  0  0  0  0  0  0
  -16.2900    8.8620    2.7150 C   0  0  0  0  0  0  0  0  0  0  0  0
  -21.3200   12.4090   -2.0730 C   0  0  2  0  0  0  0  0  0  0  0  0
  -20.5830   11.9650   -3.3330 C   0  0  0  0  0  0  0  0  0  0  0  0
  -20.8040   13.7360   -1.5550 C   0  0  0  0  0  0  0  0  0  0  0  0
  -19.4500   13.9500   -1.3520 C   0  0  0  0  0  0  0  0  0  0  0  0
  -18.9910   15.1650   -0.8800 C   0  0  0  0  0  0  0  0  0  0  0  0
  -19.8830   16.1780   -0.5710 C   0  0  0  0  0  0  0  0  0  0  0  0
  -21.2380   15.9670   -0.7720 C   0  0  0  0  0  0  0  0  0  0  0  0
  -21.6990   14.7550   -1.2520 C   0  0  0  0  0  0  0  0  0  0  0  0
  -22.3830   17.2690   -0.4320 S   0  0  0  0  0  0  0  0  0  0  0  0
  -22.3780   18.1430   -1.5720 O   0  0  0  0  0  0  0  0  0  0  0  0
  -22.0350   17.8150    0.8430 O   0  0  0  0  0  0  0  0  0  0  0  0
  -23.8590   16.6710   -0.2950 N   0  0  0  0  0  0  0  0  0  0  0  0
  -24.2870   16.3950    0.5890 H   0  0  0  0  0  0  0  0  0  0  0  0
  -24.2950   16.6110   -1.2150 H   0  0  0  0  0  0  0  0  0  0  0  0
  1  2  1  0  0  0  0
  1  4  2  0  0  0  0
  1  5  1  0  0  0  0
  2 19  1  0  0  0  0
  2  3  1  0  0  0  0
  5  6  1  0  0  0  0
  5 14  2  0  0  0  0
  6  7  2  0  0  0  0
  7  9  1  0  0  0  0
  8  7  1  1  0  0  0
  8 11  1  0  0  0  0
  8 10  1  0  0  0  0
  9 16  1  6  0  0  0
  9 12  1  0  0  0  0
 10 12  1  0  0  0  0
 11 14  1  0  0  0  0
 11 15  1  0  0  0  0
 12 13  1  0  0  0  0
 16 17  1  0  0  0  0
 16 18  1  0  0  0  0
 19 20  1  6  0  0  0
 19 21  1  0  0  0  0
 21 22  2  0  0  0  0
 21 26  1  0  0  0  0
 22 23  1  0  0  0  0
 23 24  2  0  0  0  0
 24 25  1  0  0  0  0
 25 26  2  0  0  0  0
 25 27  1  0  0  0  0
 27 28  2  0  0  0  0
 27 30  1  0  0  0  0
 27 29  2  0  0  0  0
 30 32  1  0  0  0  0
 30 31  1  0  0  0  0
M  END
>  <MODEL>
1

>  <REMARK>
 VINA RESULT:    -8.847      0.000      0.000
 INTER + INTRA:         -12.675
 INTER:                 -11.691
 INTRA:                  -0.984
 UNBOUND:                -0.984
  6 active torsions:
  status: ('A' for Active; 'I' for Inactive)
    1  A    between atoms: C_4  and  C_5 
       I    between atoms: C_5  and  N_19 
    2  A    between atoms: C_6  and  N_19 
    3  A    between atoms: C_6  and  C_22 
    4  A    between atoms: C_10  and  C_15 
    5  A    between atoms: C_25  and  S_27 
    6  A    between atoms: S_27  and  N_30 

>  <COMPND>
    /home/daniil/Downloads/ml_docking_review/databases/Vina/outputs/7AVI_S2Q/7AVI_S2Q.pdbqt 

>  <AUTHOR>
    GENERATED BY OPEN BABEL 3.2.1

>  <MASTER>
        0    0    0    0    0    0    0    0   32    0   32    0

$$$$
