../../databases/Vina/outputs/7NGW_UAW/7NGW_UAW1.pdb
 OpenBabel08242616453D

 20 21  0  0  1  0  0  0  0  0999 V2000
  -11.5440  -28.1360    4.0830 C   0  0  0  0  0  0  0  0  0  0  0  0
  -12.7090  -27.9730    1.9740 C   0  0  1  0  0  0  0  0  0  0  0  0
  -10.4510  -27.0800    2.1130 C   0  0  0  0  0  0  0  0  0  0  0  0
   -9.1180  -27.3190    2.7410 C   0  0  0  0  0  0  0  0  0  0  0  0
  -11.5160  -27.9630    2.6200 N   0  0  0  0  0  0  0  0  0  0  0  0
  -10.1840  -28.4810    4.6050 C   0  0  0  0  0  0  0  0  0  0  0  0
   -7.9040  -27.4120    4.9340 C   0  0  0  0  0  0  0  0  0  0  0  0
   -9.2420  -27.3700    4.2440 C   0  0  1  0  0  0  0  0  0  0  0  0
  -12.6580  -27.8640    0.6370 O   0  0  0  0  0  0  0  0  0  0  0  0
  -11.9540  -27.3290    0.2890 H   0  0  0  0  0  0  0  0  0  0  0  0
  -13.8190  -28.5920    2.4790 N   0  0  0  0  0  0  0  0  0  0  0  0
  -13.8490  -28.6350    3.4980 H   0  0  0  0  0  0  0  0  0  0  0  0
  -14.8900  -29.1610    1.8650 C   0  0  0  0  0  0  0  0  0  0  0  0
  -15.1100  -29.1670    0.4820 C   0  0  0  0  0  0  0  0  0  0  0  0
  -16.1620  -29.8670   -0.0440 C   0  0  0  0  0  0  0  0  0  0  0  0
  -16.9890  -30.6320    0.7300 C   0  0  0  0  0  0  0  0  0  0  0  0
  -16.8050  -30.6120    2.0990 C   0  0  0  0  0  0  0  0  0  0  0  0
  -15.7320  -29.9470    2.6480 C   0  0  0  0  0  0  0  0  0  0  0  0
  -18.0570  -31.3730    0.3690 O   0  0  0  0  0  0  0  0  0  0  0  0
  -18.5710  -30.9560   -0.3120 H   0  0  0  0  0  0  0  0  0  0  0  0
  1  5  1  0  0  0  0
  1  6  1  0  0  0  0
  2  9  1  6  0  0  0
  2 11  1  0  0  0  0
  2  5  1  0  0  0  0
  3  5  1  0  0  0  0
  3  4  1  0  0  0  0
  4  8  1  0  0  0  0
  6  8  1  0  0  0  0
  8  7  1  1  0  0  0
  9 10  1  0  0  0  0
 11 13  1  0  0  0  0
 11 12  1  0  0  0  0
 13 14  2  0  0  0  0
 13 18  1  0  0  0  0
 14 15  1  0  0  0  0
 15 16  2  0  0  0  0
 16 19  1  0  0  0  0
 16 17  1  0  0  0  0
 17 18  2  0  0  0  0
 19 20  1  0  0  0  0
M  END
>  <MODEL>
1

>  <REMARK>
 VINA RESULT:    -9.783      0.000      0.000
 INTER + INTRA:         -11.146
 INTER:                 -11.499
 INTRA:                   0.353
 UNBOUND:                 0.353
  4 active torsions:
  status: ('A' for Active; 'I' for Inactive)
    1  A    between atoms: C_2  and  O_17 
    2  A    between atoms: C_2  and  N_12 
    3  A    between atoms: C_3  and  N_12 
    4  A    between atoms: C_7  and  O_19 

>  <COMPND>
    /home/daniil/Downloads/ml_docking_review/databases/Vina/outputs/7NGW_UAW/7NGW_UAW.pdbqt 

>  <AUTHOR>
    GENERATED BY OPEN BABEL 3.2.1

>  <MASTER>
        0    0    0    0    0    0    0    0   20    0   20    0

$$$$
