../../databases/Vina/outputs/7R3D_APR/7R3D_APR1.pdb
 OpenBabel08242612033D

 46 49  0  0  1  0  0  0  0  0999 V2000
    9.3570   15.6110  -49.3270 C   0  0  1  0  0  0  0  0  0  0  0  0
    9.6860   15.2960  -50.7760 C   0  0  1  0  0  0  0  0  0  0  0  0
   10.8970   16.2040  -51.0000 C   0  0  1  0  0  0  0  0  0  0  0  0
    9.5580   16.9960  -49.2030 O   0  0  0  0  0  0  0  0  0  0  0  0
   10.5690   17.4380  -50.1490 C   0  0  2  0  0  0  0  0  0  0  0  0
   10.0500   18.6300  -50.9070 C   0  0  0  0  0  0  0  0  0  0  0  0
   11.0170   18.9780  -51.9450 O   0  0  0  0  0  0  0  0  0  0  0  0
   11.1610   20.4920  -52.3940 P   0  0  2  0  0  0  0  0  0  0  0  0
   10.1700   21.3140  -51.6430 O   0  0  0  0  0  0  0  0  0  0  0  0
   11.1820   20.6130  -53.8880 O   0  0  0  0  0  0  0  0  0  0  0  0
   12.6680   20.7430  -51.9010 O   0  0  0  0  0  0  0  0  0  0  0  0
   13.4130   20.5730  -50.5000 P   0  0  1  0  0  0  0  0  0  0  0  0
   12.6410   21.2700  -49.4140 O   0  0  0  0  0  0  0  0  0  0  0  0
   13.7290   19.1170  -50.3390 O   0  0  0  0  0  0  0  0  0  0  0  0
   14.7610   21.3710  -50.6830 O   0  0  0  0  0  0  0  0  0  0  0  0
   15.7830   20.8870  -51.5750 C   0  0  0  0  0  0  0  0  0  0  0  0
   17.1100   20.9690  -50.8700 C   0  0  1  0  0  0  0  0  0  0  0  0
   17.9890   21.8330  -51.6220 O   0  0  0  0  0  0  0  0  0  0  0  0
   18.4460   22.9080  -50.8310 C   0  0  2  0  0  0  0  0  0  0  0  0
   17.4330   23.0000  -49.6910 C   0  0  1  0  0  0  0  0  0  0  0  0
   17.0400   21.5440  -49.4510 C   0  0  2  0  0  0  0  0  0  0  0  0
   18.5090   24.0920  -51.5840 O   0  0  0  0  0  0  0  0  0  0  0  0
   17.6440   24.3510  -51.8810 H   0  0  0  0  0  0  0  0  0  0  0  0
   17.9480   23.6050  -48.5240 O   0  0  0  0  0  0  0  0  0  0  0  0
   17.9110   24.5540  -48.5380 H   0  0  0  0  0  0  0  0  0  0  0  0
   17.9130   20.8480  -48.5710 O   0  0  0  0  0  0  0  0  0  0  0  0
   17.4760   20.4530  -47.8260 H   0  0  0  0  0  0  0  0  0  0  0  0
   12.0960   15.6090  -50.5230 O   0  0  0  0  0  0  0  0  0  0  0  0
   12.1610   14.6970  -50.7780 H   0  0  0  0  0  0  0  0  0  0  0  0
    9.9240   13.9090  -50.8750 O   0  0  0  0  0  0  0  0  0  0  0  0
    9.2160   13.4580  -50.4320 H   0  0  0  0  0  0  0  0  0  0  0  0
    7.9900   15.3260  -48.9490 N   0  0  1  0  0  0  0  0  0  0  0  0
    7.5190   15.1880  -47.6750 C   0  0  1  0  0  0  0  0  0  0  0  0
    8.2190   15.2700  -46.5330 N   0  0  0  0  0  0  0  0  0  0  0  0
    6.1660   14.9500  -47.8010 C   0  0  0  0  0  0  0  0  0  0  0  0
    7.4290   15.0670  -45.4860 C   0  0  0  0  0  0  0  0  0  0  0  0
    9.2200   15.4600  -46.4770 H   0  0  0  0  0  0  0  0  0  0  0  0
    6.1130   14.8200  -45.4450 N   0  0  0  0  0  0  0  0  0  0  0  0
    5.4350   14.7650  -46.6180 C   0  0  0  0  0  0  0  0  0  0  0  0
    5.6350   14.6780  -44.5550 H   0  0  0  0  0  0  0  0  0  0  0  0
    4.1250   14.5510  -46.5830 N   0  0  0  0  0  0  0  0  0  0  0  0
    3.5930   14.4170  -45.7220 H   0  0  0  0  0  0  0  0  0  0  0  0
    3.6150   14.5100  -47.4640 H   0  0  0  0  0  0  0  0  0  0  0  0
    5.8140   14.9350  -49.1430 N   0  0  0  0  0  0  0  0  0  0  0  0
    6.9300   15.1570  -49.7890 C   0  0  0  0  0  0  0  0  0  0  0  0
    4.8860   14.7850  -49.5400 H   0  0  0  0  0  0  0  0  0  0  0  0
  1  2  1  0  0  0  0
  1  4  1  6  0  0  0
  1 32  1  0  0  0  0
  2  3  1  0  0  0  0
  2 30  1  1  0  0  0
  3 28  1  1  0  0  0
  3  5  1  0  0  0  0
  4  5  1  0  0  0  0
  5  6  1  6  0  0  0
  6  7  1  0  0  0  0
  7  8  1  0  0  0  0
  8 10  2  6  0  0  0
  8 11  1  0  0  0  0
  8  9  1  0  0  0  0
 11 12  1  0  0  0  0
 12 15  1  0  0  0  0
 12 14  2  1  0  0  0
 12 13  1  0  0  0  0
 15 16  1  0  0  0  0
 17 16  1  6  0  0  0
 17 18  1  0  0  0  0
 17 21  1  0  0  0  0
 18 19  1  0  0  0  0
 19 22  1  6  0  0  0
 19 20  1  0  0  0  0
 20 21  1  0  0  0  0
 20 24  1  1  0  0  0
 21 26  1  1  0  0  0
 22 23  1  0  0  0  0
 24 25  1  0  0  0  0
 26 27  1  0  0  0  0
 28 29  1  0  0  0  0
 30 31  1  0  0  0  0
 32 45  1  1  0  0  0
 32 33  1  0  0  0  0
 33 35  1  1  0  0  0
 33 34  1  0  0  0  0
 34 37  1  0  0  0  0
 34 36  1  0  0  0  0
 35 44  1  0  0  0  0
 35 39  2  0  0  0  0
 36 38  1  0  0  0  0
 38 39  1  0  0  0  0
 38 40  1  0  0  0  0
 39 41  1  0  0  0  0
 41 43  1  0  0  0  0
 41 42  1  0  0  0  0
 44 45  1  0  0  0  0
 44 46  1  0  0  0  0
M  END
>  <MODEL>
1

>  <REMARK>
 VINA RESULT:   -10.227      0.000      0.000
 INTER + INTRA:         -18.325
 INTER:                 -17.102
 INTRA:                  -1.222
 UNBOUND:                -1.222
  14 active torsions:
  status: ('A' for Active; 'I' for Inactive)
    1  A    between atoms: N_15  and  C_16 
    2  A    between atoms: C_17  and  O_18 
    3  A    between atoms: C_20  and  O_21 
    4  A    between atoms: C_24  and  C_25 
    5  A    between atoms: C_25  and  O_26 
    6  A    between atoms: O_26  and  P_27 
    7  A    between atoms: P_27  and  O_30 
    8  A    between atoms: O_30  and  P_31 
    9  A    between atoms: P_31  and  O_34 
   10  A    between atoms: O_34  and  C_35 
   11  A    between atoms: C_35  and  C_46 
   12  A    between atoms: O_37  and  C_39 
   13  A    between atoms: O_40  and  C_42 
   14  A    between atoms: O_43  and  C_45 

>  <COMPND>
    /home/daniil/Downloads/ml_docking_review/databases/Vina/outputs/7R3D_APR/7R3D_APR.pdbqt 

>  <AUTHOR>
    GENERATED BY OPEN BABEL 3.2.1

>  <MASTER>
        0    0    0    0    0    0    0    0   46    0   46    0

$$$$
