../../databases/Vina/outputs/8GFD_ZHR/8GFD_ZHR1.pdb
 OpenBabel08242616453D

 30 32  0  0  1  0  0  0  0  0999 V2000
  -41.3100  -57.4560   -7.4440 C   0  0  2  0  0  0  0  0  0  0  0  0
  -42.5750  -56.7140   -7.8510 C   0  0  2  0  0  0  0  0  0  0  0  0
  -42.7690  -56.8330   -9.3570 C   0  0  1  0  0  0  0  0  0  0  0  0
  -42.7700  -58.3040   -9.7870 C   0  0  2  0  0  0  0  0  0  0  0  0
  -41.5350  -58.8970   -9.3830 O   0  0  0  0  0  0  0  0  0  0  0  0
  -41.3740  -58.9140   -7.9730 C   0  0  1  0  0  0  0  0  0  0  0  0
  -40.1800  -59.5500   -7.6640 O   0  0  0  0  0  0  0  0  0  0  0  0
  -40.2370  -60.9720   -7.3990 C   0  0  0  0  0  0  0  0  0  0  0  0
  -39.7050  -61.3350   -6.0270 C   0  0  0  0  0  0  0  0  0  0  0  0
  -40.6650  -61.4280   -4.8550 C   0  0  0  0  0  0  0  0  0  0  0  0
  -41.7480  -60.5580   -4.7030 C   0  0  0  0  0  0  0  0  0  0  0  0
  -42.5870  -60.6930   -3.5960 C   0  0  0  0  0  0  0  0  0  0  0  0
  -42.2880  -61.6230   -2.6100 C   0  0  0  0  0  0  0  0  0  0  0  0
  -43.8440  -59.9530   -3.2010 C   0  0  0  0  0  0  0  0  0  0  0  0
  -43.2170  -61.6570   -1.6120 O   0  0  0  0  0  0  0  0  0  0  0  0
  -41.2170  -62.4710   -2.7080 C   0  0  0  0  0  0  0  0  0  0  0  0
  -44.1420  -60.5540   -1.8410 C   0  0  0  0  0  0  0  0  0  0  0  0
  -40.4180  -62.3500   -3.8450 C   0  0  0  0  0  0  0  0  0  0  0  0
  -41.1210  -57.3990   -6.0110 N   0  0  0  0  0  0  0  0  0  0  0  0
  -40.4700  -56.4540   -5.3210 C   0  0  0  0  0  0  0  0  0  0  0  0
  -40.3680  -56.6160   -3.8470 C   0  0  0  0  0  0  0  0  0  0  0  0
  -39.9900  -55.4980   -5.8890 O   0  0  0  0  0  0  0  0  0  0  0  0
  -41.5280  -58.1610   -5.4670 H   0  0  0  0  0  0  0  0  0  0  0  0
  -42.8140  -58.4660  -11.2590 C   0  0  0  0  0  0  0  0  0  0  0  0
  -41.5500  -58.1010  -11.8720 O   0  0  0  0  0  0  0  0  0  0  0  0
  -41.1810  -57.3220  -11.4710 H   0  0  0  0  0  0  0  0  0  0  0  0
  -42.5060  -55.3380   -7.4530 O   0  0  0  0  0  0  0  0  0  0  0  0
  -42.2130  -54.7920   -8.1730 H   0  0  0  0  0  0  0  0  0  0  0  0
  -44.0150  -56.2770   -9.7490 O   0  0  0  0  0  0  0  0  0  0  0  0
  -44.4720  -56.0200   -8.9560 H   0  0  0  0  0  0  0  0  0  0  0  0
  1  6  1  0  0  0  0
  1  2  1  0  0  0  0
  1 19  1  1  0  0  0
  2  3  1  0  0  0  0
  2 27  1  6  0  0  0
  3  4  1  0  0  0  0
  3 29  1  1  0  0  0
  4 24  1  6  0  0  0
  4  5  1  0  0  0  0
  5  6  1  0  0  0  0
  6  7  1  6  0  0  0
  7  8  1  0  0  0  0
  8  9  1  0  0  0  0
  9 10  1  0  0  0  0
 10 11  2  0  0  0  0
 10 18  1  0  0  0  0
 11 12  1  0  0  0  0
 12 14  1  0  0  0  0
 12 13  2  0  0  0  0
 13 16  1  0  0  0  0
 13 15  1  0  0  0  0
 14 17  2  0  0  0  0
 15 17  1  0  0  0  0
 16 18  2  0  0  0  0
 19 23  1  0  0  0  0
 19 20  1  0  0  0  0
 20 22  2  0  0  0  0
 20 21  1  0  0  0  0
 24 25  1  0  0  0  0
 25 26  1  0  0  0  0
 27 28  1  0  0  0  0
 29 30  1  0  0  0  0
M  END
>  <MODEL>
1

>  <REMARK>
 VINA RESULT:    -7.451      0.000      0.000
 INTER + INTRA:         -11.763
 INTER:                 -10.718
 INTRA:                  -1.045
 UNBOUND:                -1.045
  9 active torsions:
  status: ('A' for Active; 'I' for Inactive)
       I    between atoms: C_2  and  N_4 
    1  A    between atoms: N_4  and  C_6 
    2  A    between atoms: C_7  and  O_8 
    3  A    between atoms: C_10  and  O_11 
    4  A    between atoms: C_13  and  C_14 
    5  A    between atoms: C_14  and  O_15 
    6  A    between atoms: C_18  and  O_19 
    7  A    between atoms: O_19  and  C_20 
    8  A    between atoms: C_20  and  C_21 
    9  A    between atoms: C_21  and  C_22 

>  <COMPND>
    /home/daniil/Downloads/ml_docking_review/databases/Vina/outputs/8GFD_ZHR/8GFD_ZHR.pdbqt 

>  <AUTHOR>
    GENERATED BY OPEN BABEL 3.2.1

>  <MASTER>
        0    0    0    0    0    0    0    0   30    0   30    0

$$$$
