../../databases/Vina/outputs/7VBU_6I4/7VBU_6I41.pdb
 OpenBabel08242616453D

 19 22  0  0  1  0  0  0  0  0999 V2000
   35.8000   39.6490   62.8010 C   0  0  0  0  0  0  0  0  0  0  0  0
   35.8200   38.9920   64.0260 C   0  0  0  0  0  0  0  0  0  0  0  0
   35.1520   37.7800   64.2040 C   0  0  0  0  0  0  0  0  0  0  0  0
   35.1120   39.1260   61.6890 C   0  0  0  0  0  0  0  0  0  0  0  0
   34.4500   37.9050   61.9030 C   0  0  0  0  0  0  0  0  0  0  0  0
   34.4480   37.2190   63.1200 C   0  0  0  0  0  0  0  0  0  0  0  0
   33.2310   36.0230   61.6390 C   0  0  1  0  0  0  0  0  0  0  0  0
   33.6780   36.0280   62.9520 C   0  0  0  0  0  0  0  0  0  0  0  0
   33.2980   34.9410   63.7520 C   0  0  0  0  0  0  0  0  0  0  0  0
   32.5050   33.9520   63.1620 C   0  0  0  0  0  0  0  0  0  0  0  0
   32.1240   34.0730   61.8220 C   0  0  0  0  0  0  0  0  0  0  0  0
   31.2710   33.0080   61.1940 C   0  0  0  0  0  0  0  0  0  0  0  0
   32.4690   35.1070   61.0210 N   0  0  0  0  0  0  0  0  0  0  0  0
   32.1800   35.1830   60.0470 H   0  0  0  0  0  0  0  0  0  0  0  0
   33.7000   37.1470   61.0350 N   0  0  0  0  0  0  0  0  0  0  0  0
   33.5180   37.3950   60.0620 H   0  0  0  0  0  0  0  0  0  0  0  0
   35.0310   39.7630   60.3330 C   0  0  0  0  0  0  0  0  0  0  0  0
   33.9990   40.8260   60.0420 C   0  0  0  0  0  0  0  0  0  0  0  0
   35.4460   41.1990   60.1020 C   0  0  0  0  0  0  0  0  0  0  0  0
  1  4  2  0  0  0  0
  1  2  1  0  0  0  0
  2  3  2  0  0  0  0
  3  6  1  0  0  0  0
  4 17  1  0  0  0  0
  4  5  1  0  0  0  0
  5 15  1  0  0  0  0
  5  6  2  0  0  0  0
  6  8  1  0  0  0  0
  7 13  1  0  0  0  0
  7 15  1  0  0  0  0
  7  8  1  1  0  0  0
  8  9  2  0  0  0  0
  9 10  1  0  0  0  0
 10 11  2  0  0  0  0
 11 13  1  0  0  0  0
 11 12  1  0  0  0  0
 13 14  1  0  0  0  0
 15 16  1  0  0  0  0
 17 18  1  0  0  0  0
 17 19  1  0  0  0  0
 18 19  1  0  0  0  0
M  END
>  <MODEL>
1

>  <REMARK>
 VINA RESULT:    -8.553      0.000      0.000
 INTER + INTRA:          -8.933
 INTER:                  -9.053
 INTRA:                   0.120
 UNBOUND:                 0.120
  1 active torsions:
  status: ('A' for Active; 'I' for Inactive)
    1  A    between atoms: C_4  and  C_7 

>  <COMPND>
    /home/daniil/Downloads/ml_docking_review/databases/Vina/outputs/7VBU_6I4/7VBU_6I4.pdbqt 

>  <AUTHOR>
    GENERATED BY OPEN BABEL 3.2.1

>  <MASTER>
        0    0    0    0    0    0    0    0   19    0   19    0

$$$$
