../../databases/Vina/outputs/8EYE_X4I/8EYE_X4I1.pdb
 OpenBabel08242616453D

 37 39  0  0  1  0  0  0  0  0999 V2000
   14.6350   10.6620   12.3670 C   0  0  2  0  0  0  0  0  0  0  0  0
   15.2440    9.3450   12.2980 N   0  0  0  0  0  0  0  0  0  0  0  0
   16.7060    9.2450   12.2480 C   0  0  0  0  0  0  0  0  0  0  0  0
   17.3800   10.1940   12.2400 O   0  0  0  0  0  0  0  0  0  0  0  0
   14.6640    8.5060   12.2850 H   0  0  0  0  0  0  0  0  0  0  0  0
   17.3270    7.7990   12.1490 C   0  0  0  0  0  0  0  0  0  0  0  0
   16.3560    6.9350   11.3630 N   0  0  0  0  0  0  0  0  0  0  0  0
   16.1410    7.1450   10.3890 H   0  0  0  0  0  0  0  0  0  0  0  0
   15.7300    5.7810   12.0460 C   0  0  0  0  0  0  0  0  0  0  0  0
   14.8610    6.0330   13.0890 C   0  0  0  0  0  0  0  0  0  0  0  0
   14.2700    4.9650   13.7270 C   0  0  0  0  0  0  0  0  0  0  0  0
   13.4120    5.2040   14.7280 F   0  0  0  0  0  0  0  0  0  0  0  0
   14.5000    3.6450   13.3400 C   0  0  0  0  0  0  0  0  0  0  0  0
   15.3680    3.3910   12.2990 C   0  0  0  0  0  0  0  0  0  0  0  0
   15.9750    4.4410   11.6310 C   0  0  0  0  0  0  0  0  0  0  0  0
   15.5860    2.0900   11.9470 F   0  0  0  0  0  0  0  0  0  0  0  0
   14.0320   10.9570   13.7230 C   0  0  0  0  0  0  0  0  0  0  0  0
   13.8390    9.8880   14.5970 C   0  0  0  0  0  0  0  0  0  0  0  0
   13.3430   10.1370   15.8870 C   0  0  0  0  0  0  0  0  0  0  0  0
   12.9990   11.4520   16.2440 C   0  0  0  0  0  0  0  0  0  0  0  0
   13.1960   12.5030   15.3960 C   0  0  0  0  0  0  0  0  0  0  0  0
   13.7110   12.2480   14.0810 C   0  0  0  0  0  0  0  0  0  0  0  0
   12.5380   11.6990   17.6630 C   0  0  0  0  0  0  0  0  0  0  0  0
   13.4160   12.5190   18.3970 C   0  0  0  0  0  0  0  0  0  0  0  0
   13.1560   12.8180   19.7200 C   0  0  0  0  0  0  0  0  0  0  0  0
   13.9850   13.6210   20.4910 F   0  0  0  0  0  0  0  0  0  0  0  0
   12.0380   12.2640   20.3030 C   0  0  0  0  0  0  0  0  0  0  0  0
   11.1810   11.4440   19.5720 C   0  0  0  0  0  0  0  0  0  0  0  0
   11.7920   12.5610   21.6320 F   0  0  0  0  0  0  0  0  0  0  0  0
   10.0830   10.9350   20.1820 F   0  0  0  0  0  0  0  0  0  0  0  0
   11.4120   11.1300   18.2550 C   0  0  0  0  0  0  0  0  0  0  0  0
   13.7590   10.9720   11.1880 C   0  0  0  0  0  0  0  0  0  0  0  0
   13.4720   12.3810   11.0270 N   0  0  0  0  0  0  0  0  0  0  0  0
   13.8450   13.0840   11.6650 H   0  0  0  0  0  0  0  0  0  0  0  0
   13.3740   10.1250   10.4290 O   0  0  0  0  0  0  0  0  0  0  0  0
   12.6530   12.7210    9.9440 O   0  0  0  0  0  0  0  0  0  0  0  0
   11.7340   12.8540   10.1420 H   0  0  0  0  0  0  0  0  0  0  0  0
  1 32  1  6  0  0  0
  1  2  1  0  0  0  0
  1 17  1  0  0  0  0
  2  3  1  0  0  0  0
  2  5  1  0  0  0  0
  3  6  1  0  0  0  0
  3  4  2  0  0  0  0
  6  7  1  0  0  0  0
  7  8  1  0  0  0  0
  7  9  1  0  0  0  0
  9 15  2  0  0  0  0
  9 10  1  0  0  0  0
 10 11  2  0  0  0  0
 11 13  1  0  0  0  0
 11 12  1  0  0  0  0
 13 14  2  0  0  0  0
 14 15  1  0  0  0  0
 14 16  1  0  0  0  0
 17 22  2  0  0  0  0
 17 18  1  0  0  0  0
 18 19  2  0  0  0  0
 19 20  1  0  0  0  0
 20 21  2  0  0  0  0
 20 23  1  0  0  0  0
 21 22  1  0  0  0  0
 23 31  2  0  0  0  0
 23 24  1  0  0  0  0
 24 25  2  0  0  0  0
 25 27  1  0  0  0  0
 25 26  1  0  0  0  0
 27 28  2  0  0  0  0
 27 29  1  0  0  0  0
 28 31  1  0  0  0  0
 28 30  1  0  0  0  0
 32 35  2  0  0  0  0
 32 33  1  0  0  0  0
 33 36  1  0  0  0  0
 33 34  1  0  0  0  0
 36 37  1  0  0  0  0
M  END
>  <MODEL>
1

>  <REMARK>
 VINA RESULT:   -12.403      0.000      0.000
 INTER + INTRA:         -18.706
 INTER:                 -17.841
 INTRA:                  -0.865
 UNBOUND:                -0.865
  8 active torsions:
  status: ('A' for Active; 'I' for Inactive)
       I    between atoms: N_2  and  C_4 
    1  A    between atoms: N_2  and  C_16 
    2  A    between atoms: C_4  and  C_17 
    3  A    between atoms: C_10  and  C_11 
    4  A    between atoms: C_14  and  C_16 
    5  A    between atoms: C_16  and  C_21 
    6  A    between atoms: C_17  and  N_30 
    7  A    between atoms: C_18  and  N_30 
       I    between atoms: C_21  and  N_32 
    8  A    between atoms: N_32  and  O_35 

>  <COMPND>
    /home/daniil/Downloads/ml_docking_review/databases/Vina/outputs/8EYE_X4I/8EYE_X4I.pdbqt 

>  <AUTHOR>
    GENERATED BY OPEN BABEL 3.2.1

>  <MASTER>
        0    0    0    0    0    0    0    0   37    0   37    0

$$$$
