../../databases/Vina/outputs/7R59_I5F/7R59_I5F1.pdb
 OpenBabel08242616453D

 16 18  0  0  1  0  0  0  0  0999 V2000
    2.4210    3.7850   10.5790 C   0  0  0  0  0  0  0  0  0  0  0  0
    1.7200    4.5990   11.4830 C   0  0  0  0  0  0  0  0  0  0  0  0
    2.2520    4.8860   12.7350 C   0  0  0  0  0  0  0  0  0  0  0  0
    0.5000    4.3250    9.4240 C   0  0  2  0  0  0  0  0  0  0  0  0
    1.7620    3.1110    8.1520 C   0  0  0  0  0  0  0  0  0  0  0  0
   -0.1380    4.1630    8.2960 N   0  0  0  0  0  0  0  0  0  0  0  0
   -1.0640    4.5210    8.0630 H   0  0  0  0  0  0  0  0  0  0  0  0
    0.6930    3.4040    7.4720 N   0  0  0  0  0  0  0  0  0  0  0  0
    0.4970    3.1280    6.5090 H   0  0  0  0  0  0  0  0  0  0  0  0
    3.6720    3.2760   10.9000 C   0  0  0  0  0  0  0  0  0  0  0  0
    1.6800    3.6390    9.3960 N   0  0  0  0  0  0  0  0  0  0  0  0
    3.5010    4.3900   13.0500 C   0  0  0  0  0  0  0  0  0  0  0  0
    4.2130    3.5810   12.1480 C   0  0  0  0  0  0  0  0  0  0  0  0
    0.1480    5.1340   10.9160 S   0  0  0  0  0  0  0  0  0  0  0  0
    4.0210    4.6580   14.2790 O   0  0  0  0  0  0  0  0  0  0  0  0
    4.3700    3.9410   14.7930 H   0  0  0  0  0  0  0  0  0  0  0  0
  1 11  1  0  0  0  0
  1 10  2  0  0  0  0
  1  2  1  0  0  0  0
  2 14  1  0  0  0  0
  2  3  2  0  0  0  0
  3 12  1  0  0  0  0
  4  6  1  0  0  0  0
  4 11  1  0  0  0  0
  4 14  1  1  0  0  0
  5  8  1  0  0  0  0
  5 11  1  0  0  0  0
  6  8  1  0  0  0  0
  6  7  1  0  0  0  0
  8  9  1  0  0  0  0
 10 13  1  0  0  0  0
 12 13  2  0  0  0  0
 12 15  1  0  0  0  0
 15 16  1  0  0  0  0
M  END
>  <MODEL>
1

>  <REMARK>
 VINA RESULT:    -7.173      0.000      0.000
 INTER + INTRA:          -7.382
 INTER:                  -7.382
 INTRA:                   0.000
 UNBOUND:                 0.000
  1 active torsions:
  status: ('A' for Active; 'I' for Inactive)
    1  A    between atoms: O_12  and  C_14 

>  <COMPND>
    /home/daniil/Downloads/ml_docking_review/databases/Vina/outputs/7R59_I5F/7R59_I5F.pdbqt 

>  <AUTHOR>
    GENERATED BY OPEN BABEL 3.2.1

>  <MASTER>
        0    0    0    0    0    0    0    0   16    0   16    0

$$$$
