../../databases/Vina/outputs/7L6D_BMF/7L6D_BMF1.pdb
 OpenBabel08242612033D

 33 35  0  0  1  0  0  0  0  0999 V2000
    6.9890    9.5450   22.7760 N   0  0  0  0  0  0  0  0  0  0  0  0
    6.6530    9.7710   23.7120 H   0  0  0  0  0  0  0  0  0  0  0  0
    7.9730    8.9650   20.2680 C   0  0  0  0  0  0  0  0  0  0  0  0
    7.1510    8.0600   20.9390 C   0  0  0  0  0  0  0  0  0  0  0  0
    7.9290   12.3120   23.8030 C   0  0  0  0  0  0  0  0  0  0  0  0
    6.6380    8.4070   22.2050 C   0  0  0  0  0  0  0  0  0  0  0  0
    7.8210   10.4380   22.0980 N   0  0  0  0  0  0  0  0  0  0  0  0
    8.2910   10.1770   20.9090 C   0  0  0  0  0  0  0  0  0  0  0  0
    9.0730   11.2060   20.4950 N   0  0  0  0  0  0  0  0  0  0  0  0
    9.5830   11.2740   19.6150 H   0  0  0  0  0  0  0  0  0  0  0  0
    9.0390   12.1380   21.5040 N   0  0  0  0  0  0  0  0  0  0  0  0
    9.5130   13.0400   21.5050 H   0  0  0  0  0  0  0  0  0  0  0  0
    8.2780   11.6520   22.4740 C   0  0  1  0  0  0  0  0  0  0  0  0
    5.8890    7.4700   22.8990 C   0  0  0  0  0  0  0  0  0  0  0  0
    6.0710    7.1820   24.2430 C   0  0  0  0  0  0  0  0  0  0  0  0
    5.2260    6.2870   24.8880 C   0  0  0  0  0  0  0  0  0  0  0  0
    4.1890    5.7000   24.1870 C   0  0  0  0  0  0  0  0  0  0  0  0
    3.9820    6.0080   22.8570 C   0  0  0  0  0  0  0  0  0  0  0  0
    3.2390    4.7250   24.8760 C   0  0  0  0  0  0  0  0  0  0  0  0
    4.8300    6.8930   22.2010 C   0  0  0  0  0  0  0  0  0  0  0  0
    2.8710    5.3520   22.1900 N   0  0  0  0  0  0  0  0  0  0  0  0
    1.9500    5.7870   22.2500 H   0  0  0  0  0  0  0  0  0  0  0  0
    3.0170    3.9030   21.3180 S   0  0  0  0  0  0  0  0  0  0  0  0
    4.0410    4.2490   19.8660 C   0  0  0  0  0  0  0  0  0  0  0  0
    3.6130    2.8580   22.1480 O   0  0  0  0  0  0  0  0  0  0  0  0
    1.7170    3.4170   20.8870 O   0  0  0  0  0  0  0  0  0  0  0  0
    8.5480    8.7920   18.9480 N   0  0  0  0  0  0  0  0  0  0  0  0
    9.7290    8.0290   18.6450 C   0  0  0  0  0  0  0  0  0  0  0  0
   10.3280    7.4430   19.4780 O   0  0  0  0  0  0  0  0  0  0  0  0
    8.0740    9.2480   18.1690 H   0  0  0  0  0  0  0  0  0  0  0  0
   10.1490    8.0160   17.3210 O   0  0  0  0  0  0  0  0  0  0  0  0
    9.0930    8.1300   16.3950 C   0  0  0  0  0  0  0  0  0  0  0  0
    8.5510    6.7280   16.1430 C   0  0  0  0  0  0  0  0  0  0  0  0
  1  7  1  0  0  0  0
  1  6  1  0  0  0  0
  1  2  1  0  0  0  0
  3 27  1  0  0  0  0
  3  8  2  0  0  0  0
  3  4  1  0  0  0  0
  4  6  2  0  0  0  0
  6 14  1  0  0  0  0
  7  8  1  0  0  0  0
  7 13  1  0  0  0  0
  8  9  1  0  0  0  0
  9 10  1  0  0  0  0
  9 11  1  0  0  0  0
 11 12  1  0  0  0  0
 11 13  1  0  0  0  0
 13  5  1  6  0  0  0
 14 20  2  0  0  0  0
 14 15  1  0  0  0  0
 15 16  2  0  0  0  0
 16 17  1  0  0  0  0
 17 18  2  0  0  0  0
 17 19  1  0  0  0  0
 18 21  1  0  0  0  0
 18 20  1  0  0  0  0
 21 23  1  0  0  0  0
 21 22  1  0  0  0  0
 23 24  1  0  0  0  0
 23 26  2  0  0  0  0
 23 25  2  0  0  0  0
 27 30  1  0  0  0  0
 27 28  1  0  0  0  0
 28 31  1  0  0  0  0
 28 29  2  0  0  0  0
 31 32  1  0  0  0  0
 32 33  1  0  0  0  0
M  END
>  <MODEL>
1

>  <REMARK>
 VINA RESULT:    -7.941      0.000      0.000
 INTER + INTRA:         -11.547
 INTER:                 -10.726
 INTRA:                  -0.822
 UNBOUND:                -0.822
  6 active torsions:
  status: ('A' for Active; 'I' for Inactive)
    1  A    between atoms: C_1  and  C_20 
    2  A    between atoms: C_4  and  N_23 
       I    between atoms: C_5  and  N_23 
    3  A    between atoms: C_5  and  O_25 
    4  A    between atoms: C_12  and  N_13 
    5  A    between atoms: N_13  and  S_15 
    6  A    between atoms: O_25  and  C_26 

>  <COMPND>
    /home/daniil/Downloads/ml_docking_review/databases/Vina/outputs/7L6D_BMF/7L6D_BMF.pdbqt 

>  <AUTHOR>
    GENERATED BY OPEN BABEL 3.2.1

>  <MASTER>
        0    0    0    0    0    0    0    0   33    0   33    0

$$$$
