../../databases/Vina/outputs/7TM6_GPJ/7TM6_GPJ1.pdb
 OpenBabel08242616453D

 12 11  0  0  0  0  0  0  0  0999 V2000
   -1.9680   -0.9090   -4.1780 N   0  0  0  0  0  4  0  0  0  0  0  0
   -1.1410   -0.3220   -4.0720 H   0  0  0  0  0  0  0  0  0  0  0  0
   -1.9420   -1.0690   -5.1840 H   0  0  0  0  0  0  0  0  0  0  0  0
   -3.1690   -0.1630   -3.8140 C   0  0  0  0  0  0  0  0  0  0  0  0
   -2.8950    1.6500   -4.0720 P   0  0  0  0  0  0  0  0  0  0  0  0
   -1.6810    2.0590   -3.2690 O   0  0  0  0  0  0  0  0  0  0  0  0
   -4.1680    2.3140   -3.5650 O   0  0  0  0  0  0  0  0  0  0  0  0
   -2.6780    1.7580   -5.5750 O   0  0  0  0  0  0  0  0  0  0  0  0
   -1.7950   -2.1650   -3.4590 C   0  0  0  0  0  0  0  0  0  0  0  0
   -0.3810   -2.6510   -3.7350 C   0  0  0  0  0  0  0  0  0  0  0  0
   -0.2100   -3.8810   -3.9030 O   0  0  0  0  0  0  0  0  0  0  0  0
    0.5730   -1.8160   -3.7910 O   0  0  0  0  0  0  0  0  0  0  0  0
  1  3  1  0  0  0  0
  1  2  1  0  0  0  0
  1  4  1  0  0  0  0
  1  9  1  0  0  0  0
  4  5  1  0  0  0  0
  5  8  2  0  0  0  0
  5  7  1  0  0  0  0
  5  6  1  0  0  0  0
  9 10  1  0  0  0  0
 10 11  2  0  0  0  0
 10 12  1  0  0  0  0
M  END
>  <MODEL>
1

>  <REMARK>
 VINA RESULT:    -5.920      0.000      0.000
 INTER + INTRA:          -7.381
 INTER:                  -7.304
 INTRA:                  -0.077
 UNBOUND:                -0.077
  4 active torsions:
  status: ('A' for Active; 'I' for Inactive)
    1  A    between atoms: P_1  and  C_7 
    2  A    between atoms: C_7  and  N_10 
    3  A    between atoms: C_8  and  C_9 
    4  A    between atoms: C_8  and  N_10 

>  <COMPND>
    /home/daniil/Downloads/ml_docking_review/databases/Vina/outputs/7TM6_GPJ/7TM6_GPJ.pdbqt 

>  <AUTHOR>
    GENERATED BY OPEN BABEL 3.2.1

>  <MASTER>
        0    0    0    0    0    0    0    0   12    0   12    0

$$$$
