../../databases/Vina/outputs/7S9H_7PP/7S9H_7PP1.pdb
 OpenBabel08242616453D

 33 35  0  0  1  0  0  0  0  0999 V2000
   34.5390    9.0480  -27.5880 Cl  0  0  0  0  0  0  0  0  0  0  0  0
   33.6250    9.7380  -26.2480 C   0  0  2  0  0  0  0  0  0  0  0  0
   34.6000   10.3100  -25.5710 N   0  0  0  0  0  0  0  0  0  0  0  0
   35.5520   10.3160  -25.9360 H   0  0  0  0  0  0  0  0  0  0  0  0
   34.3180   10.8800  -24.4010 C   0  0  1  0  0  0  0  0  0  0  0  0
   35.4150   11.4340  -23.7250 N   0  0  0  0  0  0  0  0  0  0  0  0
   33.0850   10.9860  -23.9740 N   0  0  0  0  0  0  0  0  0  0  0  0
   32.8780   11.4760  -23.1040 H   0  0  0  0  0  0  0  0  0  0  0  0
   32.1180   10.4480  -24.6850 C   0  0  0  0  0  0  0  0  0  0  0  0
   32.3560    9.7700  -25.8170 C   0  0  0  0  0  0  0  0  0  0  0  0
   30.7720   10.4020  -24.4470 N   0  0  0  0  0  0  0  0  0  0  0  0
   30.1690    9.7080  -25.4610 C   0  0  0  0  0  0  0  0  0  0  0  0
   31.1140    9.2810  -26.3330 C   0  0  0  0  0  0  0  0  0  0  0  0
   30.0930   10.9810  -23.3640 C   0  0  0  0  0  0  0  0  0  0  0  0
   29.0820   11.9810  -23.8190 C   0  0  1  0  0  0  0  0  0  0  0  0
   27.8160   11.5520  -23.7190 N   0  0  0  0  0  0  0  0  0  0  0  0
   26.8360   12.4040  -24.1380 C   0  0  0  0  0  0  0  0  0  0  0  0
   27.5950   10.6290  -23.3460 H   0  0  0  0  0  0  0  0  0  0  0  0
   27.0650   13.7090  -24.5510 C   0  0  0  0  0  0  0  0  0  0  0  0
   25.9090   14.6390  -24.9180 C   0  0  0  0  0  0  0  0  0  0  0  0
   28.3990   14.1050  -24.6250 C   0  0  0  0  0  0  0  0  0  0  0  0
   29.4270   13.2570  -24.2300 C   0  0  0  0  0  0  0  0  0  0  0  0
   30.8230   13.7330  -24.2580 C   0  0  0  0  0  0  0  0  0  0  0  0
   28.6820   15.3960  -25.0040 O   0  0  0  0  0  0  0  0  0  0  0  0
   28.8850   15.5410  -26.3610 C   0  0  0  0  0  0  0  0  0  0  0  0
   30.7840    8.4910  -27.5470 C   0  0  0  0  0  0  0  0  0  0  0  0
   30.5120    7.8830  -28.4980 C   0  0  0  0  0  0  0  0  0  0  0  0
   30.2100    7.0630  -29.7280 C   0  0  0  0  0  0  0  0  0  0  0  0
   31.4610    6.8240  -30.5320 C   0  0  0  0  0  0  0  0  0  0  0  0
   31.1240    6.1080  -31.8070 C   0  0  0  0  0  0  0  0  0  0  0  0
   32.4080    5.9630  -29.7290 C   0  0  0  0  0  0  0  0  0  0  0  0
   32.0740    8.0230  -30.8850 O   0  0  0  0  0  0  0  0  0  0  0  0
   32.3180    8.5260  -30.1180 H   0  0  0  0  0  0  0  0  0  0  0  0
  2  1  1  1  0  0  0
  2 10  1  0  0  0  0
  2  3  1  0  0  0  0
  3  4  1  0  0  0  0
  3  5  1  0  0  0  0
  5  7  1  0  0  0  0
  5  6  1  6  0  0  0
  7  9  1  0  0  0  0
  7  8  1  0  0  0  0
  9 10  2  0  0  0  0
  9 11  1  0  0  0  0
 10 13  1  0  0  0  0
 11 12  1  0  0  0  0
 11 14  1  0  0  0  0
 12 13  2  0  0  0  0
 13 26  1  0  0  0  0
 15 14  1  1  0  0  0
 15 22  1  0  0  0  0
 15 16  1  0  0  0  0
 16 17  1  0  0  0  0
 16 18  1  0  0  0  0
 17 19  2  0  0  0  0
 19 20  1  0  0  0  0
 19 21  1  0  0  0  0
 21 24  1  0  0  0  0
 21 22  2  0  0  0  0
 22 23  1  0  0  0  0
 24 25  1  0  0  0  0
 26 27  3  0  0  0  0
 27 28  1  0  0  0  0
 28 29  1  0  0  0  0
 29 30  1  0  0  0  0
 29 32  1  0  0  0  0
 29 31  1  0  0  0  0
 32 33  1  0  0  0  0
M  END
>  <MODEL>
1

>  <REMARK>
 VINA RESULT:    -9.459      0.000      0.000
 INTER + INTRA:         -13.810
 INTER:                 -13.053
 INTRA:                  -0.757
 UNBOUND:                -0.757
  7 active torsions:
  status: ('A' for Active; 'I' for Inactive)
    1  A    between atoms: N_11  and  C_12 
    2  A    between atoms: C_12  and  C_13 
    3  A    between atoms: C_16  and  O_17 
    4  A    between atoms: C_25  and  C_26 
    5  A    between atoms: C_27  and  C_28 
    6  A    between atoms: C_28  and  C_29 
    7  A    between atoms: C_29  and  O_32 

>  <COMPND>
    /home/daniil/Downloads/ml_docking_review/databases/Vina/outputs/7S9H_7PP/7S9H_7PP.pdbqt 

>  <AUTHOR>
    GENERATED BY OPEN BABEL 3.2.1

>  <MASTER>
        0    0    0    0    0    0    0    0   33    0   33    0

$$$$
