../../databases/Vina/outputs/8AAU_LH0/8AAU_LH01.pdb
 OpenBabel08242616453D

 30 32  0  0  1  0  0  0  0  0999 V2000
  -15.0400   43.6700  -14.8580 C   0  0  2  0  0  0  0  0  0  0  0  0
  -14.7960   42.8370  -15.9700 C   0  0  0  0  0  0  0  0  0  0  0  0
  -16.3220   41.9630  -14.6370 N   0  0  0  0  0  0  0  0  0  0  0  0
  -15.6560   41.7510  -15.8080 C   0  0  0  0  0  0  0  0  0  0  0  0
  -15.9470   43.1470  -14.0230 N   0  0  0  0  0  0  0  0  0  0  0  0
  -16.2830   43.5320  -13.1410 H   0  0  0  0  0  0  0  0  0  0  0  0
  -15.8070   40.5940  -16.6700 C   0  0  0  0  0  0  0  0  0  0  0  0
  -15.3130   38.9870  -16.2290 S   0  0  0  0  0  0  0  0  0  0  0  0
  -15.9700   38.3970  -17.7150 C   0  0  2  0  0  0  0  0  0  0  0  0
  -16.5110   39.2960  -18.4880 N   0  0  0  0  0  0  0  0  0  0  0  0
  -16.4280   40.5330  -17.8850 C   0  0  0  0  0  0  0  0  0  0  0  0
  -16.9320   39.1130  -19.4000 H   0  0  0  0  0  0  0  0  0  0  0  0
  -15.9600   37.0610  -18.0710 N   0  0  0  0  0  0  0  0  0  0  0  0
  -16.8930   36.4710  -18.8670 C   0  0  0  0  0  0  0  0  0  0  0  0
  -17.8410   37.0820  -19.3550 O   0  0  0  0  0  0  0  0  0  0  0  0
  -15.2030   36.4790  -17.7140 H   0  0  0  0  0  0  0  0  0  0  0  0
  -16.7050   34.9860  -19.0800 C   0  0  0  0  0  0  0  0  0  0  0  0
  -15.9620   34.7540  -20.3860 C   0  0  0  0  0  0  0  0  0  0  0  0
  -18.0700   34.3200  -19.1070 C   0  0  0  0  0  0  0  0  0  0  0  0
  -17.3780   41.2050  -14.0140 C   0  0  0  0  0  0  0  0  0  0  0  0
  -18.7040   41.3490  -14.4100 C   0  0  0  0  0  0  0  0  0  0  0  0
  -19.7180   40.6260  -13.8090 C   0  0  0  0  0  0  0  0  0  0  0  0
  -19.1140   42.3860  -15.7290 Cl  0  0  0  0  0  0  0  0  0  0  0  0
  -19.4080   39.7310  -12.7990 C   0  0  0  0  0  0  0  0  0  0  0  0
  -18.0970   39.5600  -12.3940 C   0  0  0  0  0  0  0  0  0  0  0  0
  -17.0960   40.2980  -13.0070 C   0  0  0  0  0  0  0  0  0  0  0  0
  -15.4570   40.0420  -12.5400 Cl  0  0  0  0  0  0  0  0  0  0  0  0
  -14.4840   45.0890  -14.5510 C   0  0  0  0  0  0  0  0  0  0  0  0
  -13.2140   45.1790  -14.9390 F   0  0  0  0  0  0  0  0  0  0  0  0
  -14.5120   45.3220  -13.2510 F   0  0  0  0  0  0  0  0  0  0  0  0
  1  2  1  0  0  0  0
  1 28  1  6  0  0  0
  1  5  1  0  0  0  0
  2  4  2  0  0  0  0
  3  4  1  0  0  0  0
  3  5  1  0  0  0  0
  3 20  1  0  0  0  0
  4  7  1  0  0  0  0
  5  6  1  0  0  0  0
  7 11  2  0  0  0  0
  7  8  1  0  0  0  0
  8  9  1  0  0  0  0
  9 10  1  0  0  0  0
  9 13  1  1  0  0  0
 10 12  1  0  0  0  0
 10 11  1  0  0  0  0
 13 14  1  0  0  0  0
 13 16  1  0  0  0  0
 14 15  2  0  0  0  0
 14 17  1  0  0  0  0
 17 18  1  0  0  0  0
 17 19  1  0  0  0  0
 20 21  2  0  0  0  0
 20 26  1  0  0  0  0
 21 23  1  0  0  0  0
 21 22  1  0  0  0  0
 22 24  2  0  0  0  0
 24 25  1  0  0  0  0
 25 26  2  0  0  0  0
 26 27  1  0  0  0  0
 28 29  1  0  0  0  0
 28 30  1  0  0  0  0
M  END
>  <MODEL>
1

>  <REMARK>
 VINA RESULT:    -7.549      0.000      0.000
 INTER + INTRA:         -10.965
 INTER:                  -9.756
 INTRA:                  -1.209
 UNBOUND:                -1.209
  5 active torsions:
  status: ('A' for Active; 'I' for Inactive)
    1  A    between atoms: C_6  and  C_7 
    2  A    between atoms: C_10  and  N_26 
       I    between atoms: C_11  and  N_26 
    3  A    between atoms: C_11  and  C_12 
    4  A    between atoms: N_13  and  C_16 
    5  A    between atoms: C_17  and  C_20 

>  <COMPND>
    /home/daniil/Downloads/ml_docking_review/databases/Vina/outputs/8AAU_LH0/8AAU_LH0.pdbqt 

>  <AUTHOR>
    GENERATED BY OPEN BABEL 3.2.1

>  <MASTER>
        0    0    0    0    0    0    0    0   30    0   30    0

$$$$
