../../databases/Vina/outputs/7PUV_84Z/7PUV_84Z1.pdb
 OpenBabel08242616453D

 26 27  0  0  0  0  0  0  0  0999 V2000
   26.9830    6.3030   10.3810 C   0  0  0  0  0  0  0  0  0  0  0  0
   27.1010    5.6040    9.1880 C   0  0  0  0  0  0  0  0  0  0  0  0
   25.9130    6.1670   11.2840 C   0  0  0  0  0  0  0  0  0  0  0  0
   25.0400    5.0940   11.0090 C   0  0  0  0  0  0  0  0  0  0  0  0
   25.0010    4.3560    9.7930 C   0  0  0  0  0  0  0  0  0  0  0  0
   26.0870    4.6430    8.9410 C   0  0  0  0  0  0  0  0  0  0  0  0
   26.2770    3.8160    7.4260 Cl  0  0  0  0  0  0  0  0  0  0  0  0
   28.3390    7.4140   10.7500 S   0  0  0  0  0  0  0  0  0  0  0  0
   28.7850    7.0370   12.1080 O   0  0  0  0  0  0  0  0  0  0  0  0
   29.3200    7.2880    9.6700 O   0  0  0  0  0  0  0  0  0  0  0  0
   27.9000    9.0700   10.9160 C   0  0  0  0  0  0  0  0  0  0  0  0
   27.0810    9.5490    9.9290 C   0  0  0  0  0  0  0  0  0  0  0  0
   26.7100   10.9160   10.0220 C   0  0  0  0  0  0  0  0  0  0  0  0
   27.0070   11.7140   11.0900 C   0  0  0  0  0  0  0  0  0  0  0  0
   27.8280   11.2380   12.1030 C   0  0  0  0  0  0  0  0  0  0  0  0
   28.2650    9.8920   11.9820 C   0  0  0  0  0  0  0  0  0  0  0  0
   25.5580    6.9850   12.4890 C   0  0  0  0  0  0  0  0  0  0  0  0
   25.7270    6.7790   13.6170 O   0  0  0  0  0  0  0  0  0  0  0  0
   24.7130    7.9750   12.1360 O   0  0  0  0  0  0  0  0  0  0  0  0
   24.6280    9.1900   12.7830 C   0  0  0  0  0  0  0  0  0  0  0  0
   24.0300    2.9150    9.6440 S   0  0  0  0  0  0  0  0  0  0  0  0
   22.9760    2.7800   10.7570 O   0  0  0  0  0  0  0  0  0  0  0  0
   23.1700    2.8980    8.3690 O   0  0  0  0  0  0  0  0  0  0  0  0
   24.8810    1.3680    9.6370 N   0  0  0  0  0  0  0  0  0  0  0  0
   25.1910    0.9510    8.7590 H   0  0  0  0  0  0  0  0  0  0  0  0
   25.0430    0.9220   10.5400 H   0  0  0  0  0  0  0  0  0  0  0  0
  1  2  2  0  0  0  0
  1  8  1  0  0  0  0
  1  3  1  0  0  0  0
  2  6  1  0  0  0  0
  3  4  2  0  0  0  0
  3 17  1  0  0  0  0
  4  5  1  0  0  0  0
  5  6  2  0  0  0  0
  5 21  1  0  0  0  0
  6  7  1  0  0  0  0
  8 10  2  0  0  0  0
  8 11  1  0  0  0  0
  8  9  2  0  0  0  0
 11 12  2  0  0  0  0
 11 16  1  0  0  0  0
 12 13  1  0  0  0  0
 13 14  2  0  0  0  0
 14 15  1  0  0  0  0
 15 16  2  0  0  0  0
 17 19  1  0  0  0  0
 17 18  2  0  0  0  0
 19 20  1  0  0  0  0
 21 23  2  0  0  0  0
 21 24  1  0  0  0  0
 21 22  2  0  0  0  0
 24 25  1  0  0  0  0
 24 26  1  0  0  0  0
M  END
>  <MODEL>
1

>  <REMARK>
 VINA RESULT:    -7.713      0.000      0.000
 INTER + INTRA:         -11.272
 INTER:                 -10.193
 INTRA:                  -1.078
 UNBOUND:                -1.078
  6 active torsions:
  status: ('A' for Active; 'I' for Inactive)
    1  A    between atoms: S_2  and  C_10 
    2  A    between atoms: S_2  and  C_4 
    3  A    between atoms: C_12  and  C_13 
    4  A    between atoms: C_13  and  O_14 
    5  A    between atoms: C_18  and  S_21 
    6  A    between atoms: S_21  and  N_24 

>  <COMPND>
    /home/daniil/Downloads/ml_docking_review/databases/Vina/outputs/7PUV_84Z/7PUV_84Z.pdbqt 

>  <AUTHOR>
    GENERATED BY OPEN BABEL 3.2.1

>  <MASTER>
        0    0    0    0    0    0    0    0   26    0   26    0

$$$$
