../../databases/Vina/outputs/7ZDY_6MJ/7ZDY_6MJ1.pdb
 OpenBabel08242616453D

 14 14  0  0  1  0  0  0  0  0999 V2000
   27.1020   -8.5440   43.0570 C   0  0  1  0  0  0  0  0  0  0  0  0
   26.9630   -7.0530   43.4790 C   0  0  1  0  0  0  0  0  0  0  0  0
   25.8010   -6.3050   42.8920 C   0  0  2  0  0  0  0  0  0  0  0  0
   25.9260   -6.4490   41.3700 C   0  0  1  0  0  0  0  0  0  0  0  0
   25.8330   -7.9540   41.0390 C   0  0  0  0  0  0  0  0  0  0  0  0
   27.0340   -8.5940   41.5880 O   0  0  0  0  0  0  0  0  0  0  0  0
   28.4670   -8.8820   43.4170 O   0  0  0  0  0  0  0  0  0  0  0  0
   29.2690   -9.3880   42.3310 C   0  0  0  0  0  0  0  0  0  0  0  0
   26.8200   -6.9510   44.9540 O   0  0  0  0  0  0  0  0  0  0  0  0
   26.8720   -6.0420   45.2250 H   0  0  0  0  0  0  0  0  0  0  0  0
   26.0100   -4.8920   43.1250 O   0  0  0  0  0  0  0  0  0  0  0  0
   25.2230   -4.6170   43.5810 H   0  0  0  0  0  0  0  0  0  0  0  0
   24.8160   -5.7940   40.7960 O   0  0  0  0  0  0  0  0  0  0  0  0
   24.6620   -4.9870   41.2730 H   0  0  0  0  0  0  0  0  0  0  0  0
  1  6  1  0  0  0  0
  1  7  1  6  0  0  0
  1  2  1  0  0  0  0
  2  3  1  0  0  0  0
  2  9  1  1  0  0  0
  3  4  1  0  0  0  0
  3 11  1  6  0  0  0
  4 13  1  6  0  0  0
  4  5  1  0  0  0  0
  5  6  1  0  0  0  0
  7  8  1  0  0  0  0
  9 10  1  0  0  0  0
 11 12  1  0  0  0  0
 13 14  1  0  0  0  0
M  END
>  <MODEL>
1

>  <REMARK>
 VINA RESULT:    -5.668      0.000      0.000
 INTER + INTRA:          -6.553
 INTER:                  -6.496
 INTRA:                  -0.056
 UNBOUND:                -0.056
  4 active torsions:
  status: ('A' for Active; 'I' for Inactive)
    1  A    between atoms: O_2  and  C_3 
    2  A    between atoms: C_4  and  O_13 
    3  A    between atoms: C_5  and  O_11 
    4  A    between atoms: C_6  and  O_9 

>  <COMPND>
    /home/daniil/Downloads/ml_docking_review/databases/Vina/outputs/7ZDY_6MJ/7ZDY_6MJ.pdbqt 

>  <AUTHOR>
    GENERATED BY OPEN BABEL 3.2.1

>  <MASTER>
        0    0    0    0    0    0    0    0   14    0   14    0

$$$$
