../../databases/Vina/outputs/7NR8_UOE/7NR8_UOE1.pdb
 OpenBabel08242612033D

 51 56  0  0  1  0  0  0  0  0999 V2000
    6.1020    9.5660   45.6430 C   0  0  0  0  0  0  0  0  0  0  0  0
    7.3450   10.1510   45.7030 C   0  0  0  0  0  0  0  0  0  0  0  0
    8.4590    9.4550   45.2860 C   0  0  0  0  0  0  0  0  0  0  0  0
    8.3500    8.1560   44.7940 C   0  0  0  0  0  0  0  0  0  0  0  0
    5.9720    8.2760   45.1570 C   0  0  0  0  0  0  0  0  0  0  0  0
    4.5390    7.9080   45.2070 C   0  0  0  0  0  0  0  0  0  0  0  0
    3.8710    9.0370   45.5430 N   0  0  0  0  0  0  0  0  0  0  0  0
    4.7510   10.1090   45.9970 C   0  0  0  0  0  0  0  0  0  0  0  0
    7.0800    7.5600   44.7460 C   0  0  0  0  0  0  0  0  0  0  0  0
    4.0130    6.8190   44.9980 O   0  0  0  0  0  0  0  0  0  0  0  0
    2.4320    9.0550   45.7540 C   0  0  2  0  0  0  0  0  0  0  0  0
    1.8160   10.3750   45.2820 C   0  0  0  0  0  0  0  0  0  0  0  0
    2.0810    8.7480   47.2100 C   0  0  0  0  0  0  0  0  0  0  0  0
    2.9110    8.8240   48.1150 O   0  0  0  0  0  0  0  0  0  0  0  0
    0.8170    8.3820   47.4050 N   0  0  0  0  0  0  0  0  0  0  0  0
    0.2320    8.2420   46.5810 H   0  0  0  0  0  0  0  0  0  0  0  0
    0.2080    8.1670   48.7140 C   0  0  1  0  0  0  0  0  0  0  0  0
   -0.5680    9.3850   49.1760 C   0  0  1  0  0  0  0  0  0  0  0  0
   -1.0730   10.1380   48.2000 N   0  0  0  0  0  0  0  0  0  0  0  0
   -1.7880   11.2350   48.5320 C   0  0  0  0  0  0  0  0  0  0  0  0
   -0.9240    9.8920   47.2220 H   0  0  0  0  0  0  0  0  0  0  0  0
   -2.0180   11.5760   49.8730 C   0  0  0  0  0  0  0  0  0  0  0  0
   -1.5050   10.7860   50.8630 C   0  0  0  0  0  0  0  0  0  0  0  0
   -0.7700    9.6720   50.5140 C   0  0  0  0  0  0  0  0  0  0  0  0
   -2.2610   11.9610   47.4720 N   0  0  0  0  0  0  0  0  0  0  0  0
   -3.2240   13.0550   47.6370 C   0  0  0  0  0  0  0  0  0  0  0  0
   -4.1430   13.1450   46.4370 C   0  0  0  0  0  0  0  0  0  0  0  0
   -3.3390   13.2960   45.1900 N   0  0  0  0  0  0  0  0  0  0  0  0
   -2.4330   12.1190   45.0270 C   0  0  0  0  0  0  0  0  0  0  0  0
   -4.2070   13.4830   43.9970 C   0  0  0  0  0  0  0  0  0  0  0  0
   -1.5050   12.0310   46.2200 C   0  0  0  0  0  0  0  0  0  0  0  0
   -0.7200    6.9520   48.6570 C   0  0  0  0  0  0  0  0  0  0  0  0
   -1.6770    7.1010   47.6140 O   0  0  0  0  0  0  0  0  0  0  0  0
   -2.1660    6.2950   47.4900 H   0  0  0  0  0  0  0  0  0  0  0  0
    9.5880    7.4220   44.4140 C   0  0  1  0  0  0  0  0  0  0  0  0
   10.5070    8.1670   43.8160 N   0  0  0  0  0  0  0  0  0  0  0  0
   11.6910    7.5840   43.4920 C   0  0  1  0  0  0  0  0  0  0  0  0
   10.3310    9.1500   43.6050 H   0  0  0  0  0  0  0  0  0  0  0  0
   12.0200    6.2980   43.7340 N   0  0  0  0  0  0  0  0  0  0  0  0
   11.1230    5.5690   44.3810 C   0  0  0  0  0  0  0  0  0  0  0  0
   12.9140    5.9070   43.4340 H   0  0  0  0  0  0  0  0  0  0  0  0
    9.8860    6.0910   44.7380 C   0  0  0  0  0  0  0  0  0  0  0  0
    8.7630    5.0720   45.5760 Cl  0  0  0  0  0  0  0  0  0  0  0  0
   12.5980    8.3380   42.8500 N   0  0  0  0  0  0  0  0  0  0  0  0
   13.5660    8.0160   42.8660 H   0  0  0  0  0  0  0  0  0  0  0  0
   12.3220    9.5650   42.1390 C   0  0  0  0  0  0  0  0  0  0  0  0
   11.6430    9.2500   40.8080 C   0  0  0  0  0  0  0  0  0  0  0  0
   11.4790   10.4970   39.9610 C   0  0  0  0  0  0  0  0  0  0  0  0
   12.7400   11.1440   39.7390 O   0  0  0  0  0  0  0  0  0  0  0  0
   13.3000   11.5670   40.9930 C   0  0  0  0  0  0  0  0  0  0  0  0
   13.5920   10.3820   41.8990 C   0  0  0  0  0  0  0  0  0  0  0  0
  1  5  2  0  0  0  0
  1  2  1  0  0  0  0
  1  8  1  0  0  0  0
  2  3  2  0  0  0  0
  3  4  1  0  0  0  0
  4  9  2  0  0  0  0
  5  9  1  0  0  0  0
  5  6  1  0  0  0  0
  6 10  2  0  0  0  0
  6  7  1  0  0  0  0
  7 11  1  0  0  0  0
  7  8  1  0  0  0  0
 11 12  1  1  0  0  0
 11 13  1  0  0  0  0
 13 15  1  0  0  0  0
 13 14  2  0  0  0  0
 15 16  1  0  0  0  0
 15 17  1  0  0  0  0
 17 32  1  6  0  0  0
 18 17  1  6  0  0  0
 18 19  1  0  0  0  0
 18 24  1  0  0  0  0
 19 21  1  0  0  0  0
 19 20  1  0  0  0  0
 20 25  1  0  0  0  0
 20 22  2  0  0  0  0
 22 23  1  0  0  0  0
 23 24  2  0  0  0  0
 25 31  1  0  0  0  0
 25 26  1  0  0  0  0
 26 27  1  0  0  0  0
 27 28  1  0  0  0  0
 28 30  1  0  0  0  0
 28 29  1  0  0  0  0
 29 31  1  0  0  0  0
 32 33  1  0  0  0  0
 33 34  1  0  0  0  0
 35  4  1  1  0  0  0
 35 36  1  0  0  0  0
 35 42  1  0  0  0  0
 36 37  1  0  0  0  0
 36 38  1  0  0  0  0
 37 44  1  6  0  0  0
 37 39  1  0  0  0  0
 39 41  1  0  0  0  0
 39 40  1  0  0  0  0
 40 42  2  0  0  0  0
 42 43  1  0  0  0  0
 44 46  1  0  0  0  0
 44 45  1  0  0  0  0
 46 47  1  0  0  0  0
 46 51  1  0  0  0  0
 47 48  1  0  0  0  0
 48 49  1  0  0  0  0
 49 50  1  0  0  0  0
 50 51  1  0  0  0  0
M  END
>  <MODEL>
1

>  <REMARK>
 VINA RESULT:   -12.350      0.000      0.000
 INTER + INTRA:         -20.699
 INTER:                 -19.209
 INTRA:                  -1.490
 UNBOUND:                -1.490
  10 active torsions:
  status: ('A' for Active; 'I' for Inactive)
    1  A    between atoms: C_2  and  C_16 
    2  A    between atoms: C_2  and  N_23 
    3  A    between atoms: C_6  and  C_9 
    4  A    between atoms: C_10  and  N_29 
       I    between atoms: C_16  and  N_38 
    5  A    between atoms: C_17  and  CA_40 
    6  A    between atoms: C_17  and  O_41 
    7  A    between atoms: C_20  and  N_47 
    8  A    between atoms: N_29  and  C_31 
    9  A    between atoms: N_38  and  CA_40 
   10  A    between atoms: CA_40  and  C_43 

>  <COMPND>
    /home/daniil/Downloads/ml_docking_review/databases/Vina/outputs/7NR8_UOE/7NR8_UOE.pdbqt 

>  <AUTHOR>
    GENERATED BY OPEN BABEL 3.2.1

>  <MASTER>
        0    0    0    0    0    0    0    0   51    0   51    0

$$$$
