../../databases/Vina/outputs/7NUT_GLP/7NUT_GLP1.pdb
 OpenBabel08242616453D

 22 22  0  0  1  0  0  0  0  0999 V2000
    3.3780    6.3810  -36.3930 C   0  0  2  0  0  0  0  0  0  0  0  0
    4.4960    6.3510  -35.3630 C   0  0  1  0  0  0  0  0  0  0  0  0
    5.5820    5.4150  -35.7790 C   0  0  2  0  0  0  0  0  0  0  0  0
    5.0330    4.0700  -36.1320 C   0  0  1  0  0  0  0  0  0  0  0  0
    3.9180    4.2000  -37.1820 C   0  0  2  0  0  0  0  0  0  0  0  0
    2.8350    5.0010  -36.6230 O   0  0  0  0  0  0  0  0  0  0  0  0
    3.3800    2.8610  -37.6040 C   0  0  0  0  0  0  0  0  0  0  0  0
    3.3820    1.9970  -36.5080 O   0  0  0  0  0  0  0  0  0  0  0  0
    3.1590    0.4150  -36.9060 P   0  0  0  0  0  0  0  0  0  0  0  0
    3.4750   -0.3890  -35.6180 O   0  0  0  0  0  0  0  0  0  0  0  0
    1.7070    0.2050  -37.3660 O   0  0  0  0  0  0  0  0  0  0  0  0
    4.1010    0.0390  -38.0710 O   0  0  0  0  0  0  0  0  0  0  0  0
    6.0640    3.2280  -36.6470 O   0  0  0  0  0  0  0  0  0  0  0  0
    6.8420    3.3230  -36.1100 H   0  0  0  0  0  0  0  0  0  0  0  0
    3.8610    6.8230  -37.5720 O   0  0  0  0  0  0  0  0  0  0  0  0
    3.1730    7.3290  -37.9880 H   0  0  0  0  0  0  0  0  0  0  0  0
    6.5320    5.2660  -34.6800 O   0  0  0  0  0  0  0  0  0  0  0  0
    6.6340    4.3420  -34.4830 H   0  0  0  0  0  0  0  0  0  0  0  0
    5.0290    7.7150  -35.2260 N   0  0  0  0  0  4  0  0  0  0  0  0
    4.2910    8.4180  -35.2590 H   0  0  0  0  0  0  0  0  0  0  0  0
    5.3680    7.8990  -34.2820 H   0  0  0  0  0  0  0  0  0  0  0  0
    5.7470    7.8830  -35.9290 H   0  0  0  0  0  0  0  0  0  0  0  0
  1 15  1  6  0  0  0
  1  6  1  0  0  0  0
  1  2  1  0  0  0  0
  2  3  1  0  0  0  0
  2 19  1  6  0  0  0
  3  4  1  0  0  0  0
  3 17  1  1  0  0  0
  4  5  1  0  0  0  0
  4 13  1  6  0  0  0
  5  7  1  1  0  0  0
  5  6  1  0  0  0  0
  7  8  1  0  0  0  0
  8  9  1  0  0  0  0
  9 12  2  0  0  0  0
  9 11  1  0  0  0  0
  9 10  1  0  0  0  0
 13 14  1  0  0  0  0
 15 16  1  0  0  0  0
 17 18  1  0  0  0  0
 19 22  1  0  0  0  0
 19 20  1  0  0  0  0
 19 21  1  0  0  0  0
M  END
>  <MODEL>
1

>  <REMARK>
 VINA RESULT:    -7.659      0.000      0.000
 INTER + INTRA:         -10.363
 INTER:                  -9.898
 INTRA:                  -0.465
 UNBOUND:                -0.465
  7 active torsions:
  status: ('A' for Active; 'I' for Inactive)
    1  A    between atoms: C_1  and  O_7 
    2  A    between atoms: C_2  and  N_9 
    3  A    between atoms: C_3  and  O_13 
    4  A    between atoms: C_4  and  O_15 
    5  A    between atoms: C_5  and  C_6 
    6  A    between atoms: C_6  and  O_18 
    7  A    between atoms: O_18  and  P_19 

>  <COMPND>
    /home/daniil/Downloads/ml_docking_review/databases/Vina/outputs/7NUT_GLP/7NUT_GLP.pdbqt 

>  <AUTHOR>
    GENERATED BY OPEN BABEL 3.2.1

>  <MASTER>
        0    0    0    0    0    0    0    0   22    0   22    0

$$$$
