../../databases/Vina/outputs/7EN7_J79/7EN7_J791.pdb
 OpenBabel08242616453D

 27 27  0  0  1  0  0  0  0  0999 V2000
    1.6920  -11.4860  -11.6170 C   0  0  1  0  0  0  0  0  0  0  0  0
    2.9640  -10.7520  -11.8580 C   0  0  1  0  0  0  0  0  0  0  0  0
    4.1260  -11.6800  -11.9550 C   0  0  2  0  0  0  0  0  0  0  0  0
    4.2540  -12.5380  -10.7190 C   0  0  1  0  0  0  0  0  0  0  0  0
    1.8630  -12.3650  -10.3910 C   0  0  2  0  0  0  0  0  0  0  0  0
    2.9900  -13.2790  -10.5790 O   0  0  0  0  0  0  0  0  0  0  0  0
    2.8400  -10.0120  -13.1170 O   0  0  0  0  0  0  0  0  0  0  0  0
    1.9600  -10.6190  -14.0440 C   0  0  2  0  0  0  0  0  0  0  0  0
    2.7990  -11.1550  -15.2380 C   0  0  0  0  0  0  0  0  0  0  0  0
    0.9550   -9.5630  -14.4590 C   0  0  0  0  0  0  0  0  0  0  0  0
    1.3040   -8.6420  -15.2440 O   0  0  0  0  0  0  0  0  0  0  0  0
   -0.2100   -9.6060  -14.0210 O   0  0  0  0  0  0  0  0  0  0  0  0
    0.6330  -10.5450  -11.3650 O   0  0  0  0  0  0  0  0  0  0  0  0
    0.5430   -9.9780  -12.1220 H   0  0  0  0  0  0  0  0  0  0  0  0
    5.3860  -10.9110  -12.0880 N   0  0  0  0  0  0  0  0  0  0  0  0
    6.2660  -11.1370  -13.2210 C   0  0  0  0  0  0  0  0  0  0  0  0
    7.5650  -10.2980  -13.2920 C   0  0  0  0  0  0  0  0  0  0  0  0
    5.9910  -11.9290  -14.0510 O   0  0  0  0  0  0  0  0  0  0  0  0
    5.6370  -10.2200  -11.3800 H   0  0  0  0  0  0  0  0  0  0  0  0
    0.6450  -13.2220  -10.1730 C   0  0  0  0  0  0  0  0  0  0  0  0
    0.2650  -13.7630  -11.4210 O   0  0  0  0  0  0  0  0  0  0  0  0
   -1.3280  -13.6130  -11.8520 P   0  0  0  0  0  0  0  0  0  0  0  0
   -2.1060  -13.2510  -10.5960 O   0  0  0  0  0  0  0  0  0  0  0  0
   -1.7660  -14.9390  -12.3990 O   0  0  0  0  0  0  0  0  0  0  0  0
   -1.3390  -12.5080  -12.8880 O   0  0  0  0  0  0  0  0  0  0  0  0
    5.2270  -13.4950  -10.8640 O   0  0  0  0  0  0  0  0  0  0  0  0
    5.5810  -13.3690  -11.7370 H   0  0  0  0  0  0  0  0  0  0  0  0
  1  2  1  0  0  0  0
  1 13  1  1  0  0  0
  1  5  1  0  0  0  0
  2  7  1  6  0  0  0
  2  3  1  0  0  0  0
  3 15  1  1  0  0  0
  3  4  1  0  0  0  0
  4 26  1  6  0  0  0
  4  6  1  0  0  0  0
  5  6  1  0  0  0  0
  5 20  1  6  0  0  0
  7  8  1  0  0  0  0
  8  9  1  6  0  0  0
  8 10  1  0  0  0  0
 10 11  2  0  0  0  0
 10 12  1  0  0  0  0
 13 14  1  0  0  0  0
 15 16  1  0  0  0  0
 15 19  1  0  0  0  0
 16 18  2  0  0  0  0
 16 17  1  0  0  0  0
 20 21  1  0  0  0  0
 21 22  1  0  0  0  0
 22 25  2  0  0  0  0
 22 24  1  0  0  0  0
 22 23  1  0  0  0  0
 26 27  1  0  0  0  0
M  END
>  <MODEL>
1

>  <REMARK>
 VINA RESULT:    -6.429      0.000      0.000
 INTER + INTRA:         -10.581
 INTER:                  -9.435
 INTRA:                  -1.146
 UNBOUND:                -1.146
  9 active torsions:
  status: ('A' for Active; 'I' for Inactive)
    1  A    between atoms: C_1  and  O_14 
    2  A    between atoms: C_2  and  O_16 
    3  A    between atoms: C_3  and  O_16 
    4  A    between atoms: C_3  and  C_5 
    5  A    between atoms: C_6  and  N_12 
       I    between atoms: C_7  and  N_12 
    6  A    between atoms: C_9  and  O_20 
    7  A    between atoms: C_10  and  C_11 
    8  A    between atoms: C_11  and  O_23 
    9  A    between atoms: O_23  and  P_27 

>  <COMPND>
    /home/daniil/Downloads/ml_docking_review/databases/Vina/outputs/7EN7_J79/7EN7_J79.pdbqt 

>  <AUTHOR>
    GENERATED BY OPEN BABEL 3.2.1

>  <MASTER>
        0    0    0    0    0    0    0    0   27    0   27    0

$$$$
