../../databases/Vina/outputs/7OKC_VFE/7OKC_VFE1.pdb
 OpenBabel08242611493D

 32 34  0  0  0  0  0  0  0  0999 V2000
   28.6390    3.4260  -21.2870 C   0  0  0  0  0  0  0  0  0  0  0  0
   29.0470    4.7030  -21.6470 N   0  0  0  0  0  0  0  0  0  0  0  0
   27.6000    3.2050  -20.6500 O   0  0  0  0  0  0  0  0  0  0  0  0
   30.3940    4.9870  -22.1890 C   0  0  0  0  0  0  0  0  0  0  0  0
   31.3300    5.4880  -21.0780 C   0  0  0  0  0  0  0  0  0  0  0  0
   31.6970    6.8040  -21.2840 N   0  0  0  0  0  0  0  0  0  0  0  0
   32.6550    7.4430  -20.4160 C   0  0  0  0  0  0  0  0  0  0  0  0
   31.2870    7.3290  -22.0570 H   0  0  0  0  0  0  0  0  0  0  0  0
   31.7740    4.8230  -20.1300 O   0  0  0  0  0  0  0  0  0  0  0  0
   28.2210    5.8460  -21.1880 C   0  0  0  0  0  0  0  0  0  0  0  0
   27.4140    6.3850  -22.3090 C   0  0  0  0  0  0  0  0  0  0  0  0
   27.9660    7.1170  -23.3330 C   0  0  0  0  0  0  0  0  0  0  0  0
   27.1700    7.6700  -24.3140 C   0  0  0  0  0  0  0  0  0  0  0  0
   25.8060    7.4790  -24.2600 C   0  0  0  0  0  0  0  0  0  0  0  0
   25.2390    6.7500  -23.2460 C   0  0  0  0  0  0  0  0  0  0  0  0
   26.0500    6.1990  -22.2650 C   0  0  0  0  0  0  0  0  0  0  0  0
   24.9750    8.0160  -25.2240 N   0  0  0  0  0  0  0  0  0  0  0  0
   25.1020    9.2950  -25.6700 N   0  0  0  0  0  0  0  0  0  0  0  0
   24.0980    9.3170  -26.5600 C   0  0  0  0  0  0  0  0  0  0  0  0
   25.7660   10.0230  -25.4060 H   0  0  0  0  0  0  0  0  0  0  0  0
   23.3600    8.1510  -26.7010 N   0  0  0  0  0  0  0  0  0  0  0  0
   23.9410    7.3510  -25.8430 C   0  0  0  0  0  0  0  0  0  0  0  0
   22.5680    7.9650  -27.3150 H   0  0  0  0  0  0  0  0  0  0  0  0
   29.5300    2.3150  -21.7400 C   0  0  0  0  0  0  0  0  0  0  0  0
   28.7810    1.2790  -23.0110 S   0  0  0  0  0  0  0  0  0  0  0  0
   27.7100    2.3690  -23.9660 C   0  0  0  0  0  0  0  0  0  0  0  0
   26.3490    2.3070  -23.8090 C   0  0  0  0  0  0  0  0  0  0  0  0
   25.7610    1.1420  -22.6600 Cl  0  0  0  0  0  0  0  0  0  0  0  0
   25.4500    3.1260  -24.4830 C   0  0  0  0  0  0  0  0  0  0  0  0
   25.9640    4.0420  -25.3910 C   0  0  0  0  0  0  0  0  0  0  0  0
   27.3320    4.1190  -25.5650 C   0  0  0  0  0  0  0  0  0  0  0  0
   28.1890    3.3060  -24.8550 C   0  0  0  0  0  0  0  0  0  0  0  0
  1 24  1  0  0  0  0
  1  2  1  0  0  0  0
  1  3  2  0  0  0  0
  2  4  1  0  0  0  0
  2 10  1  0  0  0  0
  4  5  1  0  0  0  0
  5  6  1  0  0  0  0
  5  9  2  0  0  0  0
  6  8  1  0  0  0  0
  6  7  1  0  0  0  0
 10 11  1  0  0  0  0
 11 12  2  0  0  0  0
 11 16  1  0  0  0  0
 12 13  1  0  0  0  0
 13 14  2  0  0  0  0
 14 17  1  0  0  0  0
 14 15  1  0  0  0  0
 15 16  2  0  0  0  0
 17 22  1  0  0  0  0
 17 18  1  0  0  0  0
 18 19  1  0  0  0  0
 18 20  1  0  0  0  0
 19 21  1  0  0  0  0
 21 23  1  0  0  0  0
 21 22  1  0  0  0  0
 24 25  1  0  0  0  0
 25 26  1  0  0  0  0
 26 32  2  0  0  0  0
 26 27  1  0  0  0  0
 27 29  2  0  0  0  0
 27 28  1  0  0  0  0
 29 30  1  0  0  0  0
 30 31  2  0  0  0  0
 31 32  1  0  0  0  0
M  END
>  <MODEL>
1

>  <REMARK>
 VINA RESULT:    -4.449      0.000      0.000
 INTER + INTRA:          -8.969
 INTER:                  -6.530
 INTRA:                  -2.439
 UNBOUND:                -2.439
  8 active torsions:
  status: ('A' for Active; 'I' for Inactive)
    1  A    between atoms: C_11  and  C_18 
    2  A    between atoms: C_12  and  N_25 
    3  A    between atoms: C_13  and  S_31 
    4  A    between atoms: C_15  and  C_19 
       I    between atoms: C_15  and  N_26 
    5  A    between atoms: C_16  and  C_20 
       I    between atoms: C_16  and  N_28 
    6  A    between atoms: C_18  and  N_28 
    7  A    between atoms: C_19  and  N_28 
    8  A    between atoms: C_20  and  S_31 

>  <COMPND>
    /home/daniil/Downloads/ml_docking_review/databases/Vina/outputs/7OKC_VFE/7OKC_VFE.pdbqt 

>  <AUTHOR>
    GENERATED BY OPEN BABEL 3.2.1

>  <MASTER>
        0    0    0    0    0    0    0    0   32    0   32    0

$$$$
