../../databases/Vina/outputs/8CGC_LMR/8CGC_LMR1.pdb
 OpenBabel08242616453D

 10  9  0  0  1  0  0  0  0  0999 V2000
   39.8610   59.0190   -0.2670 C   0  0  1  0  0  0  0  0  0  0  0  0
   41.1000   59.2060   -1.1430 C   0  0  0  0  0  0  0  0  0  0  0  0
   41.5180   58.2160   -1.8120 O   0  0  0  0  0  0  0  0  0  0  0  0
   41.5860   60.3400   -1.1380 O   0  0  0  0  0  0  0  0  0  0  0  0
   39.2850   60.2700    0.0410 O   0  0  0  0  0  0  0  0  0  0  0  0
   38.5090   60.1530    0.5750 H   0  0  0  0  0  0  0  0  0  0  0  0
   38.8210   58.1360   -0.9690 C   0  0  0  0  0  0  0  0  0  0  0  0
   37.4060   58.5860   -0.6430 C   0  0  0  0  0  0  0  0  0  0  0  0
   37.0030   58.4820    0.5340 O   0  0  0  0  0  0  0  0  0  0  0  0
   36.7210   59.0650   -1.5610 O   0  0  0  0  0  0  0  0  0  0  0  0
  1  2  1  0  0  0  0
  1  7  1  6  0  0  0
  1  5  1  0  0  0  0
  2  3  2  0  0  0  0
  2  4  1  0  0  0  0
  5  6  1  0  0  0  0
  7  8  1  0  0  0  0
  8 10  2  0  0  0  0
  8  9  1  0  0  0  0
M  END
>  <MODEL>
1

>  <REMARK>
 VINA RESULT:    -3.792      0.000      0.000
 INTER + INTRA:          -4.958
 INTER:                  -4.568
 INTRA:                  -0.390
 UNBOUND:                -0.390
  4 active torsions:
  status: ('A' for Active; 'I' for Inactive)
    1  A    between atoms: C_1  and  C_4 
    2  A    between atoms: C_4  and  O_5 
    3  A    between atoms: C_4  and  C_7 
    4  A    between atoms: C_7  and  C_8 

>  <COMPND>
    /home/daniil/Downloads/ml_docking_review/databases/Vina/outputs/8CGC_LMR/8CGC_LMR.pdbqt 

>  <AUTHOR>
    GENERATED BY OPEN BABEL 3.2.1

>  <MASTER>
        0    0    0    0    0    0    0    0   10    0   10    0

$$$$
