../../databases/Vina/outputs/7Q2B_M6H/7Q2B_M6H1.pdb
 OpenBabel08242616453D

 14 15  0  0  1  0  0  0  0  0999 V2000
  -30.1800  -12.8100   17.0910 C   0  0  0  0  0  0  0  0  0  0  0  0
  -28.9930  -13.4680   16.7870 C   0  0  0  0  0  0  0  0  0  0  0  0
  -29.4480  -12.1210   15.1930 C   0  0  1  0  0  0  0  0  0  0  0  0
  -30.4260  -11.9960   16.0770 N   0  0  0  0  0  0  0  0  0  0  0  0
  -31.2320  -11.3770   15.9910 H   0  0  0  0  0  0  0  0  0  0  0  0
  -28.5770  -13.0260   15.6100 N   0  0  0  0  0  0  0  0  0  0  0  0
  -27.7380  -13.3280   15.1140 H   0  0  0  0  0  0  0  0  0  0  0  0
  -29.3090  -11.3880   13.8600 C   0  0  0  0  0  0  0  0  0  0  0  0
  -30.6060  -11.2810   13.0630 C   0  0  0  0  0  0  0  0  0  0  0  0
  -31.8360  -11.2090   13.6960 C   0  0  0  0  0  0  0  0  0  0  0  0
  -32.9960  -11.1450   12.9340 C   0  0  0  0  0  0  0  0  0  0  0  0
  -32.9140  -11.1670   11.5520 C   0  0  0  0  0  0  0  0  0  0  0  0
  -31.6890  -11.2450   10.9180 C   0  0  0  0  0  0  0  0  0  0  0  0
  -30.5360  -11.3060   11.6740 C   0  0  0  0  0  0  0  0  0  0  0  0
  1  4  1  0  0  0  0
  1  2  2  0  0  0  0
  2  6  1  0  0  0  0
  3  8  1  6  0  0  0
  3  6  1  0  0  0  0
  3  4  1  0  0  0  0
  4  5  1  0  0  0  0
  6  7  1  0  0  0  0
  8  9  1  0  0  0  0
  9 14  2  0  0  0  0
  9 10  1  0  0  0  0
 10 11  2  0  0  0  0
 11 12  1  0  0  0  0
 12 13  2  0  0  0  0
 13 14  1  0  0  0  0
M  END
>  <MODEL>
1

>  <REMARK>
 VINA RESULT:    -7.285      0.000      0.000
 INTER + INTRA:          -7.724
 INTER:                  -8.137
 INTRA:                   0.412
 UNBOUND:                 0.412
  2 active torsions:
  status: ('A' for Active; 'I' for Inactive)
    1  A    between atoms: C_8  and  C_10 
    2  A    between atoms: C_8  and  C_9 

>  <COMPND>
    /home/daniil/Downloads/ml_docking_review/databases/Vina/outputs/7Q2B_M6H/7Q2B_M6H.pdbqt 

>  <AUTHOR>
    GENERATED BY OPEN BABEL 3.2.1

>  <MASTER>
        0    0    0    0    0    0    0    0   14    0   14    0

$$$$
