../../databases/Vina/outputs/7FRX_O88/7FRX_O881.pdb
 OpenBabel08242616453D

 35 37  0  0  0  0  0  0  0  0999 V2000
   82.7510  -42.1340   66.7010 C   0  0  0  0  0  0  0  0  0  0  0  0
   81.7220  -43.0360   66.9140 C   0  0  0  0  0  0  0  0  0  0  0  0
   81.6900  -44.2360   66.2500 C   0  0  0  0  0  0  0  0  0  0  0  0
   82.7250  -44.5190   65.3590 C   0  0  0  0  0  0  0  0  0  0  0  0
   83.7590  -43.6310   65.1390 C   0  0  0  0  0  0  0  0  0  0  0  0
   83.7630  -42.4200   65.8310 C   0  0  0  0  0  0  0  0  0  0  0  0
   84.8370  -41.3560   65.7870 C   0  0  0  0  0  0  0  0  0  0  0  0
   85.8670  -41.4520   64.7610 N   0  0  0  0  0  0  0  0  0  0  0  0
   85.7640  -42.1450   64.0200 H   0  0  0  0  0  0  0  0  0  0  0  0
   87.1920  -40.4740   64.7600 S   0  0  0  0  0  0  0  0  0  0  0  0
   87.7370  -40.4620   63.4550 O   0  0  0  0  0  0  0  0  0  0  0  0
   86.7170  -39.2880   65.3680 O   0  0  0  0  0  0  0  0  0  0  0  0
   88.2480  -41.2810   65.7720 C   0  0  0  0  0  0  0  0  0  0  0  0
   88.3080  -41.0120   67.1810 C   0  0  0  0  0  0  0  0  0  0  0  0
   89.2110  -41.6590   68.0250 C   0  0  0  0  0  0  0  0  0  0  0  0
   90.0620  -42.6270   67.4640 C   0  0  0  0  0  0  0  0  0  0  0  0
   89.9730  -42.8980   66.0710 C   0  0  0  0  0  0  0  0  0  0  0  0
   89.1130  -42.2330   65.2490 C   0  0  0  0  0  0  0  0  0  0  0  0
   90.9040  -43.2550   68.3130 O   0  0  0  0  0  0  0  0  0  0  0  0
   90.5090  -43.6790   69.0650 H   0  0  0  0  0  0  0  0  0  0  0  0
   90.6690  -43.9450   65.5830 O   0  0  0  0  0  0  0  0  0  0  0  0
   90.1870  -44.7240   65.3320 H   0  0  0  0  0  0  0  0  0  0  0  0
   80.4740  -45.3000   66.5680 S   0  0  0  0  0  0  0  0  0  0  0  0
   80.9950  -46.6020   66.5300 O   0  0  0  0  0  0  0  0  0  0  0  0
   79.7800  -44.8800   67.7460 O   0  0  0  0  0  0  0  0  0  0  0  0
   79.4540  -45.0510   65.2420 C   0  0  0  0  0  0  0  0  0  0  0  0
   79.4610  -45.8570   64.0720 C   0  0  0  0  0  0  0  0  0  0  0  0
   78.5640  -45.6680   63.0030 C   0  0  0  0  0  0  0  0  0  0  0  0
   77.5980  -44.6270   63.1250 C   0  0  0  0  0  0  0  0  0  0  0  0
   77.5990  -43.8110   64.2990 C   0  0  0  0  0  0  0  0  0  0  0  0
   78.5160  -44.0140   65.3130 C   0  0  0  0  0  0  0  0  0  0  0  0
   76.7030  -44.4880   62.1220 O   0  0  0  0  0  0  0  0  0  0  0  0
   75.8120  -44.2580   62.3600 H   0  0  0  0  0  0  0  0  0  0  0  0
   76.6140  -42.8610   64.3710 O   0  0  0  0  0  0  0  0  0  0  0  0
   76.4300  -42.5180   65.2370 H   0  0  0  0  0  0  0  0  0  0  0  0
  1  6  2  0  0  0  0
  1  2  1  0  0  0  0
  2  3  2  0  0  0  0
  3  4  1  0  0  0  0
  3 23  1  0  0  0  0
  4  5  2  0  0  0  0
  5  6  1  0  0  0  0
  6  7  1  0  0  0  0
  7  8  1  0  0  0  0
  8  9  1  0  0  0  0
  8 10  1  0  0  0  0
 10 11  2  0  0  0  0
 10 12  2  0  0  0  0
 10 13  1  0  0  0  0
 13 18  2  0  0  0  0
 13 14  1  0  0  0  0
 14 15  2  0  0  0  0
 15 16  1  0  0  0  0
 16 17  2  0  0  0  0
 16 19  1  0  0  0  0
 17 18  1  0  0  0  0
 17 21  1  0  0  0  0
 19 20  1  0  0  0  0
 21 22  1  0  0  0  0
 23 26  1  0  0  0  0
 23 24  2  0  0  0  0
 23 25  2  0  0  0  0
 26 27  2  0  0  0  0
 26 31  1  0  0  0  0
 27 28  1  0  0  0  0
 28 29  2  0  0  0  0
 29 32  1  0  0  0  0
 29 30  1  0  0  0  0
 30 34  1  0  0  0  0
 30 31  2  0  0  0  0
 32 33  1  0  0  0  0
 34 35  1  0  0  0  0
M  END
>  <MODEL>
1

>  <REMARK>
 VINA RESULT:   -12.196      0.000      0.000
 INTER + INTRA:         -18.817
 INTER:                 -17.899
 INTRA:                  -0.917
 UNBOUND:                -0.917
  10 active torsions:
  status: ('A' for Active; 'I' for Inactive)
    1  A    between atoms: C_3  and  O_27 
    2  A    between atoms: C_7  and  O_8 
    3  A    between atoms: C_11  and  O_17 
    4  A    between atoms: C_13  and  S_34 
    5  A    between atoms: C_14  and  S_34 
    6  A    between atoms: C_19  and  C_24 
    7  A    between atoms: C_23  and  S_26 
    8  A    between atoms: C_24  and  N_32 
    9  A    between atoms: S_26  and  N_32 
   10  A    between atoms: C_29  and  O_30 

>  <COMPND>
    /home/daniil/Downloads/ml_docking_review/databases/Vina/outputs/7FRX_O88/7FRX_O88.pdbqt 

>  <AUTHOR>
    GENERATED BY OPEN BABEL 3.2.1

>  <MASTER>
        0    0    0    0    0    0    0    0   35    0   35    0

$$$$
