../../databases/Vina/outputs/8CI0_8EL/8CI0_8EL1.pdb
 OpenBabel08242616453D

 30 31  0  0  1  0  0  0  0  0999 V2000
   70.4090  100.4480   90.6790 C   0  0  0  0  0  0  0  0  0  0  0  0
   70.1710  102.3330   87.5360 C   0  0  0  0  0  0  0  0  0  0  0  0
   70.0460  100.9340   89.3190 C   0  0  0  0  0  0  0  0  0  0  0  0
   69.3380  100.2340   88.4130 C   0  0  0  0  0  0  0  0  0  0  0  0
   70.3910  102.1950   88.8340 N   0  0  0  0  0  0  0  0  0  0  0  0
   69.1310  101.1180   86.9450 S   0  0  0  0  0  0  0  0  0  0  0  0
   70.8990  103.3100   89.6440 C   0  0  0  0  0  0  0  0  0  0  0  0
   72.3960  103.5130   89.4780 C   0  0  0  0  0  0  0  0  0  0  0  0
   72.9680  104.5440   88.6740 C   0  0  2  0  0  0  0  0  0  0  0  0
   72.1910  105.3700   87.9370 N   0  0  0  0  0  0  0  0  0  0  0  0
   74.3220  104.6950   88.5550 N   0  0  0  0  0  0  0  0  0  0  0  0
   71.1810  105.2570   88.0260 H   0  0  0  0  0  0  0  0  0  0  0  0
   72.5990  106.1060   87.3620 H   0  0  0  0  0  0  0  0  0  0  0  0
   75.1030  103.8410   89.2370 C   0  0  1  0  0  0  0  0  0  0  0  0
   74.7230  105.4290   87.9700 H   0  0  0  0  0  0  0  0  0  0  0  0
   76.5800  103.9890   89.0900 C   0  0  0  0  0  0  0  0  0  0  0  0
   74.6530  102.8710   90.0440 N   0  0  0  0  0  0  0  0  0  0  0  0
   73.3090  102.7300   90.1520 C   0  0  0  0  0  0  0  0  0  0  0  0
   75.2940  102.2640   90.5540 H   0  0  0  0  0  0  0  0  0  0  0  0
   68.7110   98.8800   88.6000 C   0  0  0  0  0  0  0  0  0  0  0  0
   67.8550   98.5000   87.4880 C   0  0  0  0  0  0  0  0  0  0  0  0
   67.6210   97.0770   87.5860 O   0  0  0  0  0  0  0  0  0  0  0  0
   66.1830   96.4860   87.3010 P   0  0  2  0  0  0  0  0  0  0  0  0
   65.1420   97.5370   87.4720 O   0  0  0  0  0  0  0  0  0  0  0  0
   66.1020   95.2240   88.0820 O   0  0  0  0  0  0  0  0  0  0  0  0
   66.2190   96.1080   85.7460 O   0  0  0  0  0  0  0  0  0  0  0  0
   65.0440   95.6340   84.7540 P   0  0  0  0  0  0  0  0  0  0  0  0
   64.1400   96.7990   84.5410 O   0  0  0  0  0  0  0  0  0  0  0  0
   65.6830   95.2520   83.4380 O   0  0  0  0  0  0  0  0  0  0  0  0
   64.3470   94.4240   85.4260 O   0  0  0  0  0  0  0  0  0  0  0  0
  1  3  1  0  0  0  0
  2  6  1  0  0  0  0
  2  5  1  0  0  0  0
  3  4  2  0  0  0  0
  3  5  1  0  0  0  0
  4  6  1  0  0  0  0
  4 20  1  0  0  0  0
  5  7  1  0  0  0  0
  7  8  1  0  0  0  0
  8  9  1  0  0  0  0
  8 18  2  0  0  0  0
  9 10  1  6  0  0  0
  9 11  1  0  0  0  0
 10 13  1  0  0  0  0
 10 12  1  0  0  0  0
 11 15  1  0  0  0  0
 11 14  1  0  0  0  0
 14 16  1  1  0  0  0
 14 17  1  0  0  0  0
 17 18  1  0  0  0  0
 17 19  1  0  0  0  0
 20 21  1  0  0  0  0
 21 22  1  0  0  0  0
 22 23  1  0  0  0  0
 23 26  1  0  0  0  0
 23 24  2  1  0  0  0
 23 25  1  0  0  0  0
 26 27  1  0  0  0  0
 27 29  2  0  0  0  0
 27 28  1  0  0  0  0
 27 30  1  0  0  0  0
M  END
>  <MODEL>
1

>  <REMARK>
 VINA RESULT:    -6.263      0.000      0.000
 INTER + INTRA:          -9.895
 INTER:                  -9.192
 INTRA:                  -0.703
 UNBOUND:                -0.703
  8 active torsions:
  status: ('A' for Active; 'I' for Inactive)
    1  A    between atoms: C_2  and  C_14 
    2  A    between atoms: C_11  and  C_12 
    3  A    between atoms: C_11  and  O_26 
    4  A    between atoms: C_12  and  C_16 
    5  A    between atoms: C_14  and  N_20 
    6  A    between atoms: O_26  and  P_29 
    7  A    between atoms: O_27  and  P_28 
    8  A    between atoms: O_27  and  P_29 

>  <COMPND>
    /home/daniil/Downloads/ml_docking_review/databases/Vina/outputs/8CI0_8EL/8CI0_8EL.pdbqt 

>  <AUTHOR>
    GENERATED BY OPEN BABEL 3.2.1

>  <MASTER>
        0    0    0    0    0    0    0    0   30    0   30    0

$$$$
