../../databases/Vina/outputs/7MZS_GLA/7MZS_GLA1.pdb
 OpenBabel08242616453D

 17 17  0  0  1  0  0  0  0  0999 V2000
  -11.2110  -20.9780   16.1770 C   0  0  2  0  0  0  0  0  0  0  0  0
   -9.9600  -20.2950   16.7440 C   0  0  1  0  0  0  0  0  0  0  0  0
   -9.9170  -20.3110   18.2290 C   0  0  2  0  0  0  0  0  0  0  0  0
  -11.1860  -19.7520   18.8060 C   0  0  2  0  0  0  0  0  0  0  0  0
  -12.3950  -20.4640   18.2120 C   0  0  2  0  0  0  0  0  0  0  0  0
  -12.4040  -20.4120   16.7420 O   0  0  0  0  0  0  0  0  0  0  0  0
  -13.6570  -19.8240   18.7490 C   0  0  0  0  0  0  0  0  0  0  0  0
  -14.6300  -20.8270   18.9880 O   0  0  0  0  0  0  0  0  0  0  0  0
  -15.1310  -20.9780   18.1950 H   0  0  0  0  0  0  0  0  0  0  0  0
  -11.3150  -18.3600   18.5220 O   0  0  0  0  0  0  0  0  0  0  0  0
  -11.7270  -18.2180   17.6780 H   0  0  0  0  0  0  0  0  0  0  0  0
   -8.7730  -19.5590   18.7280 O   0  0  0  0  0  0  0  0  0  0  0  0
   -8.0480  -20.1370   18.9360 H   0  0  0  0  0  0  0  0  0  0  0  0
  -11.1900  -22.3420   16.4080 O   0  0  0  0  0  0  0  0  0  0  0  0
  -10.9540  -22.8220   15.6240 H   0  0  0  0  0  0  0  0  0  0  0  0
   -8.7950  -20.9730   16.2160 O   0  0  0  0  0  0  0  0  0  0  0  0
   -8.0380  -20.7720   16.7550 H   0  0  0  0  0  0  0  0  0  0  0  0
  1 14  1  1  0  0  0
  1  6  1  0  0  0  0
  1  2  1  0  0  0  0
  2 16  1  6  0  0  0
  2  3  1  0  0  0  0
  3 12  1  6  0  0  0
  3  4  1  0  0  0  0
  4  5  1  0  0  0  0
  4 10  1  6  0  0  0
  5  6  1  0  0  0  0
  5  7  1  1  0  0  0
  7  8  1  0  0  0  0
  8  9  1  0  0  0  0
 10 11  1  0  0  0  0
 12 13  1  0  0  0  0
 14 15  1  0  0  0  0
 16 17  1  0  0  0  0
M  END
>  <MODEL>
1

>  <REMARK>
 VINA RESULT:    -5.807      0.000      0.000
 INTER + INTRA:          -7.022
 INTER:                  -6.995
 INTRA:                  -0.027
 UNBOUND:                -0.027
  6 active torsions:
  status: ('A' for Active; 'I' for Inactive)
    1  A    between atoms: C_1  and  O_7 
    2  A    between atoms: C_2  and  O_9 
    3  A    between atoms: C_3  and  O_11 
    4  A    between atoms: C_4  and  O_13 
    5  A    between atoms: C_5  and  C_6 
    6  A    between atoms: C_6  and  O_16 

>  <COMPND>
    /home/daniil/Downloads/ml_docking_review/databases/Vina/outputs/7MZS_GLA/7MZS_GLA.pdbqt 

>  <AUTHOR>
    GENERATED BY OPEN BABEL 3.2.1

>  <MASTER>
        0    0    0    0    0    0    0    0   17    0   17    0

$$$$
