../../databases/Vina/outputs/8DZT_G4P/8DZT_G4P1.pdb
 OpenBabel08242616453D

 40 42  0  0  1  0  0  0  0  0999 V2000
   25.4120   -8.9710  -12.4400 C   0  0  1  0  0  0  0  0  0  0  0  0
   24.5800  -10.1620  -12.0500 O   0  0  0  0  0  0  0  0  0  0  0  0
   26.9280   -9.4200  -12.0630 C   0  0  2  0  0  0  0  0  0  0  0  0
   26.8710  -10.6820  -12.1140 C   0  0  2  0  0  0  0  0  0  0  0  0
   25.3870  -11.0540  -11.5040 C   0  0  2  0  0  0  0  0  0  0  0  0
   25.0010  -12.3800  -11.7860 N   0  0  0  0  0  0  0  0  0  0  0  0
   25.0390  -13.1000  -12.9350 C   0  0  0  0  0  0  0  0  0  0  0  0
   24.5380  -14.3390  -12.6540 N   0  0  0  0  0  0  0  0  0  0  0  0
   24.1870  -14.3710  -11.3500 C   0  0  0  0  0  0  0  0  0  0  0  0
   24.4460  -15.1090  -13.3160 H   0  0  0  0  0  0  0  0  0  0  0  0
   23.6030  -15.4400  -10.4720 C   0  0  0  0  0  0  0  0  0  0  0  0
   24.4880  -13.1440  -10.8180 C   0  0  0  0  0  0  0  0  0  0  0  0
   23.3330  -16.5470  -10.9000 O   0  0  0  0  0  0  0  0  0  0  0  0
   23.3550  -15.1480   -9.1220 N   0  0  0  0  0  0  0  0  0  0  0  0
   23.6640  -13.8760   -8.5880 C   0  0  1  0  0  0  0  0  0  0  0  0
   22.9470  -15.8610   -8.5190 H   0  0  0  0  0  0  0  0  0  0  0  0
   23.4190  -13.5950   -7.2260 N   0  0  0  0  0  0  0  0  0  0  0  0
   24.2300  -12.8530   -9.4160 N   0  0  0  0  0  0  0  0  0  0  0  0
   24.4490  -11.9360   -9.0280 H   0  0  0  0  0  0  0  0  0  0  0  0
   27.9350  -11.3810  -11.3660 O   0  0  0  0  0  0  0  0  0  0  0  0
   28.4760  -11.8970  -11.9530 H   0  0  0  0  0  0  0  0  0  0  0  0
   27.1430   -8.9640  -10.6610 O   0  0  0  0  0  0  0  0  0  0  0  0
   28.0720   -7.6920  -10.3860 P   0  0  2  0  0  0  0  0  0  0  0  0
   27.3290   -6.8500   -9.3760 O   0  0  0  0  0  0  0  0  0  0  0  0
   28.4040   -6.9710  -11.6620 O   0  0  0  0  0  0  0  0  0  0  0  0
   29.3970   -8.2960   -9.7610 O   0  0  0  0  0  0  0  0  0  0  0  0
   30.6320   -7.4460   -9.2690 P   0  0  0  0  0  0  0  0  0  0  0  0
   30.1350   -6.2330   -8.5390 O   0  0  0  0  0  0  0  0  0  0  0  0
   31.4910   -7.1410  -10.4520 O   0  0  0  0  0  0  0  0  0  0  0  0
   31.3550   -8.3890   -8.3220 O   0  0  0  0  0  0  0  0  0  0  0  0
   25.2310   -8.6380  -13.7750 C   0  0  0  0  0  0  0  0  0  0  0  0
   24.0920   -7.7600  -13.9370 O   0  0  0  0  0  0  0  0  0  0  0  0
   24.1860   -6.2350  -13.5200 P   0  0  1  0  0  0  0  0  0  0  0  0
   25.6150   -5.7970  -13.3430 O   0  0  0  0  0  0  0  0  0  0  0  0
   23.4530   -5.4770  -14.6010 O   0  0  0  0  0  0  0  0  0  0  0  0
   23.4490   -6.1500  -12.0970 O   0  0  0  0  0  0  0  0  0  0  0  0
   23.4280   -4.9300  -11.0750 P   0  0  0  0  0  0  0  0  0  0  0  0
   23.2330   -3.6740  -11.9000 O   0  0  0  0  0  0  0  0  0  0  0  0
   22.2960   -5.1050  -10.0850 O   0  0  0  0  0  0  0  0  0  0  0  0
   24.7720   -4.9430  -10.3780 O   0  0  0  0  0  0  0  0  0  0  0  0
  1 31  1  6  0  0  0
  1  3  1  0  0  0  0
  1  2  1  0  0  0  0
  2  5  1  0  0  0  0
  3  4  1  0  0  0  0
  3 22  1  1  0  0  0
  4  5  1  0  0  0  0
  4 20  1  1  0  0  0
  5  6  1  6  0  0  0
  6  7  1  0  0  0  0
  6 12  1  0  0  0  0
  7  8  1  0  0  0  0
  8 10  1  0  0  0  0
  8  9  1  0  0  0  0
  9 12  2  0  0  0  0
  9 11  1  0  0  0  0
 11 13  2  0  0  0  0
 11 14  1  0  0  0  0
 12 18  1  0  0  0  0
 14 15  1  0  0  0  0
 14 16  1  0  0  0  0
 15 18  1  0  0  0  0
 15 17  1  1  0  0  0
 18 19  1  0  0  0  0
 20 21  1  0  0  0  0
 22 23  1  0  0  0  0
 23 25  2  6  0  0  0
 23 26  1  0  0  0  0
 23 24  1  0  0  0  0
 26 27  1  0  0  0  0
 27 29  2  0  0  0  0
 27 28  1  0  0  0  0
 27 30  1  0  0  0  0
 31 32  1  0  0  0  0
 32 33  1  0  0  0  0
 33 35  2  6  0  0  0
 33 34  1  0  0  0  0
 33 36  1  0  0  0  0
 36 37  1  0  0  0  0
 37 38  2  0  0  0  0
 37 40  1  0  0  0  0
 37 39  1  0  0  0  0
M  END
>  <MODEL>
1

>  <REMARK>
 VINA RESULT:    -9.184      0.000      0.000
 INTER + INTRA:         -16.258
 INTER:                 -14.821
 INTRA:                  -1.436
 UNBOUND:                -1.436
  11 active torsions:
  status: ('A' for Active; 'I' for Inactive)
    1  A    between atoms: P_1  and  O_5 
    2  A    between atoms: O_5  and  P_6 
    3  A    between atoms: P_6  and  O_9 
    4  A    between atoms: O_9  and  C_10 
    5  A    between atoms: C_10  and  C_11 
    6  A    between atoms: C_13  and  O_14 
    7  A    between atoms: O_14  and  P_33 
    8  A    between atoms: C_15  and  O_16 
    9  A    between atoms: C_18  and  N_19 
   10  A    between atoms: P_33  and  O_36 
   11  A    between atoms: O_36  and  P_37 

>  <COMPND>
    /home/daniil/Downloads/ml_docking_review/databases/Vina/outputs/8DZT_G4P/8DZT_G4P.pdbqt 

>  <AUTHOR>
    GENERATED BY OPEN BABEL 3.2.1

>  <MASTER>
        0    0    0    0    0    0    0    0   40    0   40    0

$$$$
