../../databases/Vina/outputs/7P5T_5YG/7P5T_5YG1.pdb
 OpenBabel08242616453D

 25 27  0  0  0  0  0  0  0  0999 V2000
  -22.3260    3.6760  -13.7530 C   0  0  0  0  0  0  0  0  0  0  0  0
  -20.8520    3.0660  -15.5160 C   0  0  0  0  0  0  0  0  0  0  0  0
  -21.8620    4.9920  -13.8170 C   0  0  0  0  0  0  0  0  0  0  0  0
  -21.8140    2.7250  -14.6020 C   0  0  0  0  0  0  0  0  0  0  0  0
  -20.3580    4.3590  -15.6000 C   0  0  0  0  0  0  0  0  0  0  0  0
  -20.8630    5.3390  -14.7380 C   0  0  0  0  0  0  0  0  0  0  0  0
  -23.3810    3.2330  -12.8440 N   0  0  0  0  0  0  0  0  0  0  0  0
  -24.3090    3.0020  -13.1970 H   0  0  0  0  0  0  0  0  0  0  0  0
  -23.0750    3.1280  -11.4070 C   0  0  0  0  0  0  0  0  0  0  0  0
  -23.5280    1.8290  -10.7430 C   0  0  0  0  0  0  0  0  0  0  0  0
  -24.8870    1.5610  -10.6180 C   0  0  0  0  0  0  0  0  0  0  0  0
  -25.3030    0.3890  -10.0030 C   0  0  0  0  0  0  0  0  0  0  0  0
  -24.3790   -0.5290   -9.5180 C   0  0  0  0  0  0  0  0  0  0  0  0
  -23.0240   -0.2600   -9.6260 C   0  0  0  0  0  0  0  0  0  0  0  0
  -22.6010    0.9130  -10.2450 C   0  0  0  0  0  0  0  0  0  0  0  0
  -24.8470   -1.7080   -8.9080 O   0  0  0  0  0  0  0  0  0  0  0  0
  -23.8820   -2.4140   -8.1760 C   0  0  0  0  0  0  0  0  0  0  0  0
  -19.3540    4.6520  -16.6970 C   0  0  0  0  0  0  0  0  0  0  0  0
  -19.1450    6.0860  -17.1310 C   0  0  0  0  0  0  0  0  0  0  0  0
  -20.0600    6.7950  -17.8890 C   0  0  0  0  0  0  0  0  0  0  0  0
  -19.7440    8.1090  -18.2320 C   0  0  0  0  0  0  0  0  0  0  0  0
  -18.6150    8.6970  -17.8290 N   0  0  0  0  0  0  0  0  0  0  0  0
  -17.7610    8.0160  -17.0690 C   0  0  0  0  0  0  0  0  0  0  0  0
  -18.4090    9.6580  -18.1000 H   0  0  0  0  0  0  0  0  0  0  0  0
  -17.9820    6.6950  -16.7020 C   0  0  0  0  0  0  0  0  0  0  0  0
  1  4  2  0  0  0  0
  1  3  1  0  0  0  0
  1  7  1  0  0  0  0
  2  5  2  0  0  0  0
  2  4  1  0  0  0  0
  3  6  2  0  0  0  0
  5 18  1  0  0  0  0
  5  6  1  0  0  0  0
  7  8  1  0  0  0  0
  7  9  1  0  0  0  0
  9 10  1  0  0  0  0
 10 11  2  0  0  0  0
 10 15  1  0  0  0  0
 11 12  1  0  0  0  0
 12 13  2  0  0  0  0
 13 14  1  0  0  0  0
 13 16  1  0  0  0  0
 14 15  2  0  0  0  0
 16 17  1  0  0  0  0
 18 19  1  0  0  0  0
 19 20  2  0  0  0  0
 19 25  1  0  0  0  0
 20 21  1  0  0  0  0
 21 22  1  0  0  0  0
 22 24  1  0  0  0  0
 22 23  1  0  0  0  0
 23 25  2  0  0  0  0
M  END
>  <MODEL>
1

>  <REMARK>
 VINA RESULT:    -9.469      0.000      0.000
 INTER + INTRA:         -13.428
 INTER:                 -12.790
 INTRA:                  -0.638
 UNBOUND:                -0.638
  6 active torsions:
  status: ('A' for Active; 'I' for Inactive)
    1  A    between atoms: C_4  and  C_5 
    2  A    between atoms: C_5  and  N_21 
    3  A    between atoms: C_6  and  N_21 
    4  A    between atoms: C_8  and  C_18 
    5  A    between atoms: C_8  and  C_9 
    6  A    between atoms: C_16  and  O_25 

>  <COMPND>
    /home/daniil/Downloads/ml_docking_review/databases/Vina/outputs/7P5T_5YG/7P5T_5YG.pdbqt 

>  <AUTHOR>
    GENERATED BY OPEN BABEL 3.2.1

>  <MASTER>
        0    0    0    0    0    0    0    0   25    0   25    0

$$$$
