../../databases/Vina/outputs/8FLN_Y7W/8FLN_Y7W1.pdb
 OpenBabel08242612033D

 40 42  0  0  1  0  0  0  0  0999 V2000
  -22.8080    3.5750    1.3430 C   0  0  0  0  0  0  0  0  0  0  0  0
  -23.8410    3.2620    0.4070 C   0  0  2  0  0  0  0  0  0  0  0  0
  -24.6530    4.3100    0.2390 N   0  0  0  0  0  0  0  0  0  0  0  0
  -25.4600    4.3700   -0.3800 H   0  0  0  0  0  0  0  0  0  0  0  0
  -24.1710    5.2960    1.0800 N   0  0  0  0  0  0  0  0  0  0  0  0
  -23.0840    4.8830    1.7590 C   0  0  0  0  0  0  0  0  0  0  0  0
  -24.1630    2.0030   -0.2810 C   0  0  0  0  0  0  0  0  0  0  0  0
  -24.4460    0.8460    0.4410 C   0  0  0  0  0  0  0  0  0  0  0  0
  -24.7880   -0.3280   -0.2140 C   0  0  0  0  0  0  0  0  0  0  0  0
  -24.8550   -0.3730   -1.6000 C   0  0  0  0  0  0  0  0  0  0  0  0
  -24.5330    0.7660   -2.3130 C   0  0  0  0  0  0  0  0  0  0  0  0
  -24.1980    1.9410   -1.6720 C   0  0  0  0  0  0  0  0  0  0  0  0
  -25.2780   -1.6420   -2.2850 C   0  0  0  0  0  0  0  0  0  0  0  0
  -24.4310   -1.9800   -3.4200 N   0  0  0  0  0  0  0  0  0  0  0  0
  -24.8110   -2.8340   -4.3710 C   0  0  0  0  0  0  0  0  0  0  0  0
  -25.9430   -3.3250   -4.3750 O   0  0  0  0  0  0  0  0  0  0  0  0
  -23.5100   -1.5470   -3.4910 H   0  0  0  0  0  0  0  0  0  0  0  0
  -23.8370   -3.1580   -5.4530 C   0  0  0  0  0  0  0  0  0  0  0  0
  -22.4400   -3.1960   -5.3580 C   0  0  0  0  0  0  0  0  0  0  0  0
  -21.6610   -3.5190   -6.4670 C   0  0  0  0  0  0  0  0  0  0  0  0
  -22.2670   -3.8020   -7.6760 C   0  0  0  0  0  0  0  0  0  0  0  0
  -23.6180   -3.7560   -7.7410 C   0  0  0  0  0  0  0  0  0  0  0  0
  -24.1970   -4.0090   -8.9490 F   0  0  0  0  0  0  0  0  0  0  0  0
  -24.4370   -3.4530   -6.6810 C   0  0  0  0  0  0  0  0  0  0  0  0
  -21.9110   -2.9180   -4.1260 O   0  0  0  0  0  0  0  0  0  0  0  0
  -20.8460   -1.9500   -4.0560 C   0  0  0  0  0  0  0  0  0  0  0  0
  -21.6580    2.7990    1.8230 C   0  0  0  0  0  0  0  0  0  0  0  0
  -21.1840    3.0680    2.9330 O   0  0  0  0  0  0  0  0  0  0  0  0
  -21.1100    1.8910    1.0250 N   0  0  0  0  0  0  0  0  0  0  0  0
  -21.5010    1.6700    0.1090 H   0  0  0  0  0  0  0  0  0  0  0  0
  -20.3110    1.3520    1.3590 H   0  0  0  0  0  0  0  0  0  0  0  0
  -24.8160    6.6090    1.1260 C   0  0  1  0  0  0  0  0  0  0  0  0
  -25.5040    6.9520   -0.1930 C   0  0  0  0  0  0  0  0  0  0  0  0
  -25.7740    6.6610    2.2920 C   0  0  0  0  0  0  0  0  0  0  0  0
  -26.1910    5.4450    2.6190 F   0  0  0  0  0  0  0  0  0  0  0  0
  -25.1870    7.1740    3.3770 F   0  0  0  0  0  0  0  0  0  0  0  0
  -26.8710    7.3700    2.0400 F   0  0  0  0  0  0  0  0  0  0  0  0
  -22.3450    5.6780    2.5910 N   0  0  0  0  0  0  0  0  0  0  0  0
  -22.0680    6.6500    2.4510 H   0  0  0  0  0  0  0  0  0  0  0  0
  -22.0550    5.4140    3.5330 H   0  0  0  0  0  0  0  0  0  0  0  0
  1  2  1  0  0  0  0
  1  6  2  0  0  0  0
  1 27  1  0  0  0  0
  2  7  1  1  0  0  0
  2  3  1  0  0  0  0
  3  4  1  0  0  0  0
  3  5  1  0  0  0  0
  5 32  1  0  0  0  0
  5  6  1  0  0  0  0
  6 38  1  0  0  0  0
  7 12  2  0  0  0  0
  7  8  1  0  0  0  0
  8  9  2  0  0  0  0
  9 10  1  0  0  0  0
 10 11  2  0  0  0  0
 10 13  1  0  0  0  0
 11 12  1  0  0  0  0
 13 14  1  0  0  0  0
 14 15  1  0  0  0  0
 14 17  1  0  0  0  0
 15 18  1  0  0  0  0
 15 16  2  0  0  0  0
 18 24  2  0  0  0  0
 18 19  1  0  0  0  0
 19 20  2  0  0  0  0
 19 25  1  0  0  0  0
 20 21  1  0  0  0  0
 21 22  2  0  0  0  0
 22 23  1  0  0  0  0
 22 24  1  0  0  0  0
 25 26  1  0  0  0  0
 27 29  1  0  0  0  0
 27 28  2  0  0  0  0
 29 30  1  0  0  0  0
 29 31  1  0  0  0  0
 32 33  1  6  0  0  0
 32 34  1  0  0  0  0
 34 37  1  0  0  0  0
 34 35  1  0  0  0  0
 34 36  1  0  0  0  0
 38 39  1  0  0  0  0
 38 40  1  0  0  0  0
M  END
>  <MODEL>
1

>  <REMARK>
 VINA RESULT:   -11.528      0.000      0.000
 INTER + INTRA:         -18.769
 INTER:                 -17.256
 INTRA:                  -1.513
 UNBOUND:                -1.513
  9 active torsions:
  status: ('A' for Active; 'I' for Inactive)
       I    between atoms: N_1  and  C_17 
    1  A    between atoms: C_4  and  C_17 
    2  A    between atoms: C_5  and  C_6 
    3  A    between atoms: C_9  and  C_18 
    4  A    between atoms: C_9  and  N_19 
    5  A    between atoms: C_10  and  C_21 
       I    between atoms: N_19  and  C_21 
    6  A    between atoms: C_25  and  O_26 
    7  A    between atoms: N_31  and  C_32 
    8  A    between atoms: C_32  and  C_33 
    9  A    between atoms: C_37  and  N_38 

>  <COMPND>
    /home/daniil/Downloads/ml_docking_review/databases/Vina/outputs/8FLN_Y7W/8FLN_Y7W.pdbqt 

>  <AUTHOR>
    GENERATED BY OPEN BABEL 3.2.1

>  <MASTER>
        0    0    0    0    0    0    0    0   40    0   40    0

$$$$
