../../databases/Vina/outputs/8BRO_R7E/8BRO_R7E1.pdb
 OpenBabel08242616453D

 33 35  0  0  1  0  0  0  0  0999 V2000
   25.9750   -0.0630    5.3700 N   0  0  0  0  0  0  0  0  0  0  0  0
   25.4360    0.4870    4.7010 H   0  0  0  0  0  0  0  0  0  0  0  0
   25.5750   -1.2930    5.6960 C   0  0  0  0  0  0  0  0  0  0  0  0
   26.1200   -1.9460    6.6180 O   0  0  0  0  0  0  0  0  0  0  0  0
   24.4800   -1.8680    4.9490 C   0  0  0  0  0  0  0  0  0  0  0  0
   24.0290   -3.1210    4.8720 C   0  0  0  0  0  0  0  0  0  0  0  0
   22.9220   -3.1030    4.0080 C   0  0  0  0  0  0  0  0  0  0  0  0
   22.7880   -1.8500    3.5760 C   0  0  0  0  0  0  0  0  0  0  0  0
   23.7060   -1.0520    4.1850 O   0  0  0  0  0  0  0  0  0  0  0  0
   21.8850   -1.2180    2.6150 C   0  0  0  0  0  0  0  0  0  0  0  0
   22.2340   -0.1290    1.8690 C   0  0  0  0  0  0  0  0  0  0  0  0
   21.3080    0.4720    1.0130 C   0  0  0  0  0  0  0  0  0  0  0  0
   20.0080   -0.0430    0.8770 C   0  0  0  0  0  0  0  0  0  0  0  0
   19.6520   -1.1190    1.6520 C   0  0  0  0  0  0  0  0  0  0  0  0
   20.5980   -1.6750    2.5100 C   0  0  0  0  0  0  0  0  0  0  0  0
   18.3210   -1.8150    1.5790 C   0  0  0  0  0  0  0  0  0  0  0  0
   17.5430   -1.6520    0.2320 N   0  0  0  0  0  4  0  0  0  0  0  0
   17.9640   -0.9100   -0.3260 H   0  0  0  0  0  0  0  0  0  0  0  0
   17.7210   -2.4560   -0.3720 H   0  0  0  0  0  0  0  0  0  0  0  0
   16.5390   -1.4970    0.3170 H   0  0  0  0  0  0  0  0  0  0  0  0
   27.1390    0.4760    5.9430 C   0  0  2  0  0  0  0  0  0  0  0  0
   26.7830    1.4680    7.0650 C   0  0  2  0  0  0  0  0  0  0  0  0
   28.0380    2.1570    7.5840 C   0  0  1  0  0  0  0  0  0  0  0  0
   28.8990    2.6860    6.4660 C   0  0  1  0  0  0  0  0  0  0  0  0
   29.1750    1.6010    5.4380 C   0  0  2  0  0  0  0  0  0  0  0  0
   29.9490    2.1550    4.2650 C   0  0  0  0  0  0  0  0  0  0  0  0
   27.8980    1.1080    4.9770 O   0  0  0  0  0  0  0  0  0  0  0  0
   26.0490    0.8470    8.1340 O   0  0  0  0  0  0  0  0  0  0  0  0
   26.6300    0.3980    8.7360 H   0  0  0  0  0  0  0  0  0  0  0  0
   27.7200    3.1680    8.5390 O   0  0  0  0  0  0  0  0  0  0  0  0
   28.4990    3.4860    8.9790 H   0  0  0  0  0  0  0  0  0  0  0  0
   28.1730    3.7730    5.8840 O   0  0  0  0  0  0  0  0  0  0  0  0
   28.0350    3.5420    4.9730 H   0  0  0  0  0  0  0  0  0  0  0  0
  1  2  1  0  0  0  0
  1  3  1  0  0  0  0
  3  5  1  0  0  0  0
  3  4  2  0  0  0  0
  5  9  1  0  0  0  0
  5  6  2  0  0  0  0
  6  7  1  0  0  0  0
  7  8  2  0  0  0  0
  8 10  1  0  0  0  0
  8  9  1  0  0  0  0
 10 11  2  0  0  0  0
 10 15  1  0  0  0  0
 11 12  1  0  0  0  0
 12 13  2  0  0  0  0
 13 14  1  0  0  0  0
 14 16  1  0  0  0  0
 14 15  2  0  0  0  0
 16 17  1  0  0  0  0
 17 19  1  0  0  0  0
 17 18  1  0  0  0  0
 17 20  1  0  0  0  0
 21  1  1  6  0  0  0
 21 27  1  0  0  0  0
 21 22  1  0  0  0  0
 22 23  1  0  0  0  0
 22 28  1  1  0  0  0
 23 24  1  0  0  0  0
 23 30  1  1  0  0  0
 24 25  1  0  0  0  0
 24 32  1  6  0  0  0
 25 26  1  6  0  0  0
 25 27  1  0  0  0  0
 28 29  1  0  0  0  0
 30 31  1  0  0  0  0
 32 33  1  0  0  0  0
M  END
>  <MODEL>
1

>  <REMARK>
 VINA RESULT:    -5.978      0.000      0.000
 INTER + INTRA:          -8.830
 INTER:                  -8.075
 INTRA:                  -0.755
 UNBOUND:                -0.755
  8 active torsions:
  status: ('A' for Active; 'I' for Inactive)
       I    between atoms: N_1  and  C_6 
    1  A    between atoms: N_1  and  C_12 
    2  A    between atoms: C_3  and  O_20 
    3  A    between atoms: C_6  and  C_7 
    4  A    between atoms: C_14  and  O_15 
    5  A    between atoms: C_17  and  O_18 
    6  A    between atoms: C_24  and  C_26 
    7  A    between atoms: C_28  and  C_29 
    8  A    between atoms: C_29  and  N_30 

>  <COMPND>
    /home/daniil/Downloads/ml_docking_review/databases/Vina/outputs/8BRO_R7E/8BRO_R7E.pdbqt 

>  <AUTHOR>
    GENERATED BY OPEN BABEL 3.2.1

>  <MASTER>
        0    0    0    0    0    0    0    0   33    0   33    0

$$$$
