../../databases/Vina/outputs/7OP9_06K/7OP9_06K1.pdb
 OpenBabel08242616453D

 15 16  0  0  1  0  0  0  0  0999 V2000
  -85.5340  -27.9080  -32.1260 C   0  0  1  0  0  0  0  0  0  0  0  0
  -85.7860  -27.0160  -34.2330 C   0  0  1  0  0  0  0  0  0  0  0  0
  -84.5560  -27.5120  -34.5660 C   0  0  0  0  0  0  0  0  0  0  0  0
  -83.8420  -28.2290  -33.5820 C   0  0  0  0  0  0  0  0  0  0  0  0
  -85.3480  -26.4610  -36.2780 C   0  0  0  0  0  0  0  0  0  0  0  0
  -84.3600  -28.4090  -32.3990 N   0  0  0  0  0  0  0  0  0  0  0  0
  -83.8510  -28.9380  -31.6910 H   0  0  0  0  0  0  0  0  0  0  0  0
  -86.2630  -27.2310  -32.9870 N   0  0  0  0  0  0  0  0  0  0  0  0
  -87.1780  -26.8720  -32.7160 H   0  0  0  0  0  0  0  0  0  0  0  0
  -84.3030  -27.1480  -35.8520 N   0  0  0  0  0  0  0  0  0  0  0  0
  -83.4630  -27.3660  -36.3880 H   0  0  0  0  0  0  0  0  0  0  0  0
  -86.2620  -26.3690  -35.3220 N   0  0  0  0  0  0  0  0  0  0  0  0
  -87.1620  -25.8960  -35.3940 H   0  0  0  0  0  0  0  0  0  0  0  0
  -86.1360  -28.1770  -30.5050 Cl  0  0  0  0  0  0  0  0  0  0  0  0
  -82.2700  -28.9230  -33.9290 Cl  0  0  0  0  0  0  0  0  0  0  0  0
  1  8  1  0  0  0  0
  1  6  1  0  0  0  0
  1 14  1  6  0  0  0
  2 12  1  0  0  0  0
  2  3  1  1  0  0  0
  2  8  1  0  0  0  0
  3 10  1  0  0  0  0
  3  4  2  0  0  0  0
  4 15  1  0  0  0  0
  4  6  1  0  0  0  0
  5 10  1  0  0  0  0
  5 12  1  0  0  0  0
  6  7  1  0  0  0  0
  8  9  1  0  0  0  0
 10 11  1  0  0  0  0
 12 13  1  0  0  0  0
M  END
>  <MODEL>
1

>  <REMARK>
 VINA RESULT:    -5.774      0.000      0.000
 INTER + INTRA:          -5.774
 INTER:                  -5.774
 INTRA:                   0.000
 UNBOUND:                 0.000
  0 active torsions:
  status: ('A' for Active; 'I' for Inactive)

>  <COMPND>
    /home/daniil/Downloads/ml_docking_review/databases/Vina/outputs/7OP9_06K/7OP9_06K.pdbqt 

>  <AUTHOR>
    GENERATED BY OPEN BABEL 3.2.1

>  <MASTER>
        0    0    0    0    0    0    0    0   15    0   15    0

$$$$
