../../databases/Vina/outputs/7SZA_DUI/7SZA_DUI1.pdb
 OpenBabel08242616453D

 23 25  0  0  1  0  0  0  0  0999 V2000
  -55.5970  -11.5950   27.0190 C   0  0  0  0  0  0  0  0  0  0  0  0
  -55.5510  -11.0320   25.7400 C   0  0  0  0  0  0  0  0  0  0  0  0
  -55.7490  -11.8310   24.5940 C   0  0  0  0  0  0  0  0  0  0  0  0
  -55.9890  -13.1830   24.7960 C   0  0  0  0  0  0  0  0  0  0  0  0
  -56.2330  -14.2440   23.9320 C   0  0  0  0  0  0  0  0  0  0  0  0
  -56.4190  -15.4060   24.5470 N   0  0  0  0  0  0  0  0  0  0  0  0
  -55.8370  -12.9580   27.1930 C   0  0  0  0  0  0  0  0  0  0  0  0
  -56.2600  -14.1240   22.6530 O   0  0  0  0  0  0  0  0  0  0  0  0
  -56.3170  -15.0780   25.8350 C   0  0  0  0  0  0  0  0  0  0  0  0
  -56.0400  -13.7370   26.0720 C   0  0  0  0  0  0  0  0  0  0  0  0
  -56.4670  -15.9480   26.7490 O   0  0  0  0  0  0  0  0  0  0  0  0
  -56.7070  -16.7380   23.9900 C   0  0  1  0  0  0  0  0  0  0  0  0
  -57.9140  -16.6080   23.1010 C   0  0  0  0  0  0  0  0  0  0  0  0
  -57.9180  -17.2110   21.9130 N   0  0  0  0  0  0  0  0  0  0  0  0
  -58.8770  -15.9450   23.4700 O   0  0  0  0  0  0  0  0  0  0  0  0
  -57.0230  -18.1230   21.5290 C   0  0  0  0  0  0  0  0  0  0  0  0
  -58.6540  -16.9580   21.2530 H   0  0  0  0  0  0  0  0  0  0  0  0
  -57.0950  -18.6560   20.4290 O   0  0  0  0  0  0  0  0  0  0  0  0
  -55.9030  -18.4840   22.4840 C   0  0  0  0  0  0  0  0  0  0  0  0
  -55.4910  -17.2220   23.2220 C   0  0  0  0  0  0  0  0  0  0  0  0
  -55.9110  -13.5330   28.4400 N   0  0  0  0  0  0  0  0  0  0  0  0
  -55.2920  -13.2550   29.2020 H   0  0  0  0  0  0  0  0  0  0  0  0
  -56.6230  -14.2400   28.6260 H   0  0  0  0  0  0  0  0  0  0  0  0
  1  2  2  0  0  0  0
  1  7  1  0  0  0  0
  2  3  1  0  0  0  0
  3  4  2  0  0  0  0
  4  5  1  0  0  0  0
  4 10  1  0  0  0  0
  5  8  2  0  0  0  0
  5  6  1  0  0  0  0
  6  9  1  0  0  0  0
  7 10  2  0  0  0  0
  7 21  1  0  0  0  0
  9 10  1  0  0  0  0
  9 11  2  0  0  0  0
 12  6  1  6  0  0  0
 12 13  1  0  0  0  0
 12 20  1  0  0  0  0
 13 14  1  0  0  0  0
 13 15  2  0  0  0  0
 14 17  1  0  0  0  0
 14 16  1  0  0  0  0
 16 18  2  0  0  0  0
 16 19  1  0  0  0  0
 19 20  1  0  0  0  0
 21 23  1  0  0  0  0
 21 22  1  0  0  0  0
M  END
>  <MODEL>
1

>  <REMARK>
 VINA RESULT:    -9.731      0.000      0.000
 INTER + INTRA:         -10.588
 INTER:                 -10.584
 INTRA:                  -0.004
 UNBOUND:                -0.004
  2 active torsions:
  status: ('A' for Active; 'I' for Inactive)
    1  A    between atoms: C_6  and  N_9 
    2  A    between atoms: N_14  and  C_17 

>  <COMPND>
    /home/daniil/Downloads/ml_docking_review/databases/Vina/outputs/7SZA_DUI/7SZA_DUI.pdbqt 

>  <AUTHOR>
    GENERATED BY OPEN BABEL 3.2.1

>  <MASTER>
        0    0    0    0    0    0    0    0   23    0   23    0

$$$$
