../../databases/Vina/outputs/8BN6_R53/8BN6_R531.pdb
 OpenBabel08242616453D

 32 35  0  0  1  0  0  0  0  0999 V2000
   -1.6010   23.2500    2.0860 C   0  0  1  0  0  0  0  0  0  0  0  0
   -3.0480   24.3870    0.8880 C   0  0  0  0  0  0  0  0  0  0  0  0
   -3.6770   24.9130   -0.2700 C   0  0  0  0  0  0  0  0  0  0  0  0
   -4.8750   25.6010   -0.1270 C   0  0  0  0  0  0  0  0  0  0  0  0
   -5.4870   25.7110    1.1160 C   0  0  0  0  0  0  0  0  0  0  0  0
   -1.8590   23.6670    0.8900 N   0  0  0  0  0  0  0  0  0  0  0  0
   -1.2770   23.4950    0.0700 H   0  0  0  0  0  0  0  0  0  0  0  0
   -4.8530   25.2060    2.2500 C   0  0  0  0  0  0  0  0  0  0  0  0
   -3.6770   24.4850    2.1080 C   0  0  0  0  0  0  0  0  0  0  0  0
   -2.7240   23.7250    3.3500 S   0  0  0  0  0  0  0  0  0  0  0  0
   -0.5230   22.4220    2.3100 N   0  0  0  0  0  0  0  0  0  0  0  0
   -0.2520   21.8550    3.5190 C   0  0  0  0  0  0  0  0  0  0  0  0
   -0.8340   22.2250    4.5430 O   0  0  0  0  0  0  0  0  0  0  0  0
    0.1050   22.2230    1.5310 H   0  0  0  0  0  0  0  0  0  0  0  0
    0.7880   20.8120    3.5690 C   0  0  0  0  0  0  0  0  0  0  0  0
    1.5130   20.6210    4.7390 N   0  0  0  0  0  0  0  0  0  0  0  0
    2.3990   19.6110    4.5620 C   0  0  0  0  0  0  0  0  0  0  0  0
    1.3970   21.1590    5.5980 H   0  0  0  0  0  0  0  0  0  0  0  0
    2.2940   19.2080    3.2440 C   0  0  0  0  0  0  0  0  0  0  0  0
    3.3110   19.1480    5.6570 C   0  0  0  0  0  0  0  0  0  0  0  0
    1.2890   19.9260    2.6490 C   0  0  0  0  0  0  0  0  0  0  0  0
    3.1590   17.9300    2.4890 Cl  0  0  0  0  0  0  0  0  0  0  0  0
    0.7970   19.7340    1.0200 Cl  0  0  0  0  0  0  0  0  0  0  0  0
   -3.0380   24.7860   -1.5150 N   0  0  0  0  0  0  0  0  0  0  0  0
   -3.5920   23.7420   -2.3810 C   0  0  0  0  0  0  0  0  0  0  0  0
   -2.6540   23.5390   -3.5490 C   0  0  0  0  0  0  0  0  0  0  0  0
   -2.5350   24.7420   -4.3030 O   0  0  0  0  0  0  0  0  0  0  0  0
   -2.0140   25.7960   -3.4890 C   0  0  0  0  0  0  0  0  0  0  0  0
   -2.8840   26.0310   -2.2690 C   0  0  0  0  0  0  0  0  0  0  0  0
   -6.7920   26.4370    1.2590 C   0  0  0  0  0  0  0  0  0  0  0  0
   -7.4480   26.6660    0.2150 O   0  0  0  0  0  0  0  0  0  0  0  0
   -7.2070   26.7120    2.4040 O   0  0  0  0  0  0  0  0  0  0  0  0
  1  6  1  0  0  0  0
  1 11  1  6  0  0  0
  1 10  1  0  0  0  0
  2  3  2  0  0  0  0
  2  6  1  0  0  0  0
  2  9  1  0  0  0  0
  3 24  1  0  0  0  0
  3  4  1  0  0  0  0
  4  5  2  0  0  0  0
  5 30  1  0  0  0  0
  5  8  1  0  0  0  0
  6  7  1  0  0  0  0
  8  9  2  0  0  0  0
  9 10  1  0  0  0  0
 11 14  1  0  0  0  0
 11 12  1  0  0  0  0
 12 15  1  0  0  0  0
 12 13  2  0  0  0  0
 15 21  2  0  0  0  0
 15 16  1  0  0  0  0
 16 17  1  0  0  0  0
 16 18  1  0  0  0  0
 17 19  2  0  0  0  0
 17 20  1  0  0  0  0
 19 22  1  0  0  0  0
 19 21  1  0  0  0  0
 21 23  1  0  0  0  0
 24 25  1  0  0  0  0
 24 29  1  0  0  0  0
 25 26  1  0  0  0  0
 26 27  1  0  0  0  0
 27 28  1  0  0  0  0
 28 29  1  0  0  0  0
 30 31  2  0  0  0  0
 30 32  1  0  0  0  0
M  END
>  <MODEL>
1

>  <REMARK>
 VINA RESULT:    -9.299      0.000      0.000
 INTER + INTRA:         -11.238
 INTER:                 -11.474
 INTRA:                   0.236
 UNBOUND:                 0.236
  4 active torsions:
  status: ('A' for Active; 'I' for Inactive)
       I    between atoms: C_1  and  N_14 
    1  A    between atoms: C_1  and  C_16 
    2  A    between atoms: C_2  and  C_11 
    3  A    between atoms: C_3  and  N_14 
    4  A    between atoms: C_6  and  N_22 

>  <COMPND>
    /home/daniil/Downloads/ml_docking_review/databases/Vina/outputs/8BN6_R53/8BN6_R53.pdbqt 

>  <AUTHOR>
    GENERATED BY OPEN BABEL 3.2.1

>  <MASTER>
        0    0    0    0    0    0    0    0   32    0   32    0

$$$$
