../../databases/Vina/outputs/6YMS_OZH/6YMS_OZH1.pdb
 OpenBabel08242616453D

 28 29  0  0  1  0  0  0  0  0999 V2000
   36.0920   41.4320   -4.2500 C   0  0  2  0  0  0  0  0  0  0  0  0
   35.2080   41.8860   -3.0730 C   0  0  0  0  0  0  0  0  0  0  0  0
   36.0620   42.2340   -1.8800 C   0  0  0  0  0  0  0  0  0  0  0  0
   36.9160   43.3270   -1.9170 C   0  0  0  0  0  0  0  0  0  0  0  0
   37.7270   43.6280   -0.8370 C   0  0  0  0  0  0  0  0  0  0  0  0
   37.6980   42.8420    0.2920 C   0  0  0  0  0  0  0  0  0  0  0  0
   36.8510   41.7580    0.3470 C   0  0  0  0  0  0  0  0  0  0  0  0
   36.0370   41.4560   -0.7310 C   0  0  0  0  0  0  0  0  0  0  0  0
   35.0720   41.5020   -5.8740 P   0  0  2  0  0  0  0  0  0  0  0  0
   36.1110   41.5040   -6.9100 O   0  0  0  0  0  0  0  0  0  0  0  0
   34.1520   42.6730   -5.7340 O   0  0  0  0  0  0  0  0  0  0  0  0
   34.2490   40.0390   -5.9010 N   0  0  0  0  0  0  0  0  0  0  0  0
   33.7190   39.7560   -5.0770 H   0  0  0  0  0  0  0  0  0  0  0  0
   34.2680   39.1590   -7.0650 C   0  0  0  0  0  0  0  0  0  0  0  0
   35.1850   37.9560   -6.9590 C   0  0  0  0  0  0  0  0  0  0  0  0
   36.0000   37.8760   -6.0460 O   0  0  0  0  0  0  0  0  0  0  0  0
   36.5830   40.0780   -4.0450 N   0  0  0  0  0  0  0  0  0  0  0  0
   37.8500   39.8450   -3.6710 C   0  0  0  0  0  0  0  0  0  0  0  0
   38.6990   40.6950   -3.5100 O   0  0  0  0  0  0  0  0  0  0  0  0
   35.9510   39.2900   -4.1880 H   0  0  0  0  0  0  0  0  0  0  0  0
   38.0490   38.5250   -3.5020 O   0  0  0  0  0  0  0  0  0  0  0  0
   39.4320   38.0930   -3.4560 C   0  0  0  0  0  0  0  0  0  0  0  0
   39.5660   37.0100   -2.4290 C   0  0  0  0  0  0  0  0  0  0  0  0
   38.6230   36.8720   -1.4220 C   0  0  0  0  0  0  0  0  0  0  0  0
   38.7350   35.8630   -0.4840 C   0  0  0  0  0  0  0  0  0  0  0  0
   39.7870   34.9750   -0.5420 C   0  0  0  0  0  0  0  0  0  0  0  0
   40.7330   35.1040   -1.5320 C   0  0  0  0  0  0  0  0  0  0  0  0
   40.6260   36.1140   -2.4700 C   0  0  0  0  0  0  0  0  0  0  0  0
  1  9  1  0  0  0  0
  1 17  1  0  0  0  0
  1  2  1  1  0  0  0
  2  3  1  0  0  0  0
  3  4  2  0  0  0  0
  3  8  1  0  0  0  0
  4  5  1  0  0  0  0
  5  6  2  0  0  0  0
  6  7  1  0  0  0  0
  7  8  2  0  0  0  0
  9 10  2  6  0  0  0
  9 12  1  0  0  0  0
  9 11  1  0  0  0  0
 12 14  1  0  0  0  0
 12 13  1  0  0  0  0
 14 15  1  0  0  0  0
 15 16  2  0  0  0  0
 17 20  1  0  0  0  0
 17 18  1  0  0  0  0
 18 19  2  0  0  0  0
 18 21  1  0  0  0  0
 21 22  1  0  0  0  0
 22 23  1  0  0  0  0
 23 28  2  0  0  0  0
 23 24  1  0  0  0  0
 24 25  2  0  0  0  0
 25 26  1  0  0  0  0
 26 27  2  0  0  0  0
 27 28  1  0  0  0  0
M  END
>  <MODEL>
1

>  <REMARK>
 VINA RESULT:    -8.156      0.000      0.000
 INTER + INTRA:         -14.353
 INTER:                 -12.924
 INTRA:                  -1.429
 UNBOUND:                -1.429
  10 active torsions:
  status: ('A' for Active; 'I' for Inactive)
    1  A    between atoms: O_1  and  C_13 
    2  A    between atoms: O_1  and  C_14 
    3  A    between atoms: C_2  and  C_6 
    4  A    between atoms: C_2  and  P_28 
    5  A    between atoms: C_2  and  N_26 
    6  A    between atoms: C_3  and  N_24 
    7  A    between atoms: C_3  and  C_4 
    8  A    between atoms: C_6  and  C_7 
    9  A    between atoms: C_11  and  C_13 
       I    between atoms: C_14  and  N_26 
   10  A    between atoms: N_24  and  P_28 

>  <COMPND>
    /home/daniil/Downloads/ml_docking_review/databases/Vina/outputs/6YMS_OZH/6YMS_OZH.pdbqt 

>  <AUTHOR>
    GENERATED BY OPEN BABEL 3.2.1

>  <MASTER>
        0    0    0    0    0    0    0    0   28    0   28    0

$$$$
