../../databases/Vina/outputs/8AQL_PLG/8AQL_PLG1.pdb
 OpenBabel08242612033D

 23 23  0  0  1  0  0  0  0  0999 V2000
    5.3240   54.7800    9.2080 N   0  0  0  0  0  0  0  0  0  0  0  0
    6.1630   55.2460    9.5530 H   0  0  0  0  0  0  0  0  0  0  0  0
    4.7440   55.1990    8.0800 C   0  0  1  0  0  0  0  0  0  0  0  0
    5.3850   56.3650    7.3800 C   0  0  0  0  0  0  0  0  0  0  0  0
    3.5800   54.5270    7.6230 C   0  0  0  0  0  0  0  0  0  0  0  0
    3.0560   53.4580    8.3120 C   0  0  0  0  0  0  0  0  0  0  0  0
    3.6730   53.0530    9.4660 C   0  0  0  0  0  0  0  0  0  0  0  0
    4.8050   53.7460    9.8860 C   0  0  0  0  0  0  0  0  0  0  0  0
    1.8200   52.6760    7.8980 C   0  0  0  0  0  0  0  0  0  0  0  0
    0.7600   53.4280    7.3180 N   0  0  0  0  0  0  0  0  0  0  0  0
    0.5620   54.3860    7.6070 H   0  0  0  0  0  0  0  0  0  0  0  0
   -0.0190   52.7660    6.3050 C   0  0  0  0  0  0  0  0  0  0  0  0
   -0.3980   53.7830    5.2400 C   0  0  0  0  0  0  0  0  0  0  0  0
    0.1240   54.9180    5.2060 O   0  0  0  0  0  0  0  0  0  0  0  0
   -1.2630   53.5050    4.3610 O   0  0  0  0  0  0  0  0  0  0  0  0
    3.0030   54.9760    6.4520 O   0  0  0  0  0  0  0  0  0  0  0  0
    3.2630   54.5510    5.6430 H   0  0  0  0  0  0  0  0  0  0  0  0
    3.1390   51.9360   10.3620 C   0  0  0  0  0  0  0  0  0  0  0  0
    3.5560   50.6220   10.1730 O   0  0  0  0  0  0  0  0  0  0  0  0
    2.5550   49.4660   10.6330 P   0  0  0  0  0  0  0  0  0  0  0  0
    2.7210   49.3200   12.1580 O   0  0  0  0  0  0  0  0  0  0  0  0
    2.9890   48.2000    9.9290 O   0  0  0  0  0  0  0  0  0  0  0  0
    1.2040   49.9280   10.2630 O   0  0  0  0  0  0  0  0  0  0  0  0
  1  3  1  0  0  0  0
  1  2  1  0  0  0  0
  1  8  1  0  0  0  0
  3  4  1  6  0  0  0
  3  5  1  0  0  0  0
  5 16  1  0  0  0  0
  5  6  2  0  0  0  0
  6  9  1  0  0  0  0
  6  7  1  0  0  0  0
  7  8  2  0  0  0  0
  7 18  1  0  0  0  0
  9 10  1  0  0  0  0
 10 12  1  0  0  0  0
 10 11  1  0  0  0  0
 12 13  1  0  0  0  0
 13 15  2  0  0  0  0
 13 14  1  0  0  0  0
 16 17  1  0  0  0  0
 18 19  1  0  0  0  0
 19 20  1  0  0  0  0
 20 22  2  0  0  0  0
 20 23  1  0  0  0  0
 20 21  1  0  0  0  0
M  END
>  <MODEL>
1

>  <REMARK>
 VINA RESULT:    -8.403      0.000      0.000
 INTER + INTRA:         -13.058
 INTER:                 -12.087
 INTRA:                  -0.971
 UNBOUND:                -0.971
  8 active torsions:
  status: ('A' for Active; 'I' for Inactive)
    1  A    between atoms: C_5  and  O_6 
    2  A    between atoms: C_8  and  C_9 
    3  A    between atoms: C_9  and  N_22 
    4  A    between atoms: C_10  and  C_12 
    5  A    between atoms: C_12  and  O_13 
    6  A    between atoms: O_13  and  P_14 
    7  A    between atoms: C_18  and  C_21 
    8  A    between atoms: C_21  and  N_22 

>  <COMPND>
    /home/daniil/Downloads/ml_docking_review/databases/Vina/outputs/8AQL_PLG/8AQL_PLG.pdbqt 

>  <AUTHOR>
    GENERATED BY OPEN BABEL 3.2.1

>  <MASTER>
        0    0    0    0    0    0    0    0   23    0   23    0

$$$$
