../../databases/Vina/outputs/7PK0_BYC/7PK0_BYC1.pdb
 OpenBabel08242611493D

 65 68  0  0  1  0  0  0  0  0999 V2000
  -21.3750   26.3010  -20.1870 O   0  0  0  0  0  0  0  0  0  0  0  0
  -22.6820   25.3880  -20.1260 P   0  0  1  0  0  0  0  0  0  0  0  0
  -23.7370   26.0470  -20.9670 O   0  0  0  0  0  0  0  0  0  0  0  0
  -22.4010   23.9300  -20.3260 O   0  0  0  0  0  0  0  0  0  0  0  0
  -23.0880   25.6340  -18.5960 O   0  0  0  0  0  0  0  0  0  0  0  0
  -22.7670   26.8320  -17.8620 C   0  0  0  0  0  0  0  0  0  0  0  0
  -24.0570   27.3470  -17.2450 C   0  0  1  0  0  0  0  0  0  0  0  0
  -24.1550   28.7760  -17.4910 O   0  0  0  0  0  0  0  0  0  0  0  0
  -25.3220   29.0670  -18.2410 C   0  0  2  0  0  0  0  0  0  0  0  0
  -25.7640   27.7610  -18.8860 C   0  0  1  0  0  0  0  0  0  0  0  0
  -25.3690   26.7670  -17.8040 C   0  0  2  0  0  0  0  0  0  0  0  0
  -24.9710   30.1090  -19.1770 N   0  0  1  0  0  0  0  0  0  0  0  0
  -24.0420   30.0510  -20.1870 C   0  0  2  0  0  0  0  0  0  0  0  0
  -23.2100   29.0290  -20.4620 N   0  0  0  0  0  0  0  0  0  0  0  0
  -24.1280   31.2570  -20.8470 C   0  0  0  0  0  0  0  0  0  0  0  0
  -22.4610   29.3260  -21.5270 C   0  0  0  0  0  0  0  0  0  0  0  0
  -23.1600   28.1570  -19.9360 H   0  0  0  0  0  0  0  0  0  0  0  0
  -22.4480   30.4420  -22.2720 N   0  0  0  0  0  0  0  0  0  0  0  0
  -23.2710   31.4680  -21.9400 C   0  0  0  0  0  0  0  0  0  0  0  0
  -21.8270   30.5180  -23.0780 H   0  0  0  0  0  0  0  0  0  0  0  0
  -23.3010   32.5610  -22.7060 N   0  0  0  0  0  0  0  0  0  0  0  0
  -23.9200   33.3320  -22.4570 H   0  0  0  0  0  0  0  0  0  0  0  0
  -22.6790   32.7150  -23.5000 H   0  0  0  0  0  0  0  0  0  0  0  0
  -25.1090   32.0600  -20.2740 N   0  0  0  0  0  0  0  0  0  0  0  0
  -25.5870   31.3270  -19.3070 C   0  0  0  0  0  0  0  0  0  0  0  0
  -25.3890   33.0020  -20.5470 H   0  0  0  0  0  0  0  0  0  0  0  0
  -27.1480   27.7740  -19.1760 O   0  0  0  0  0  0  0  0  0  0  0  0
  -27.4470   28.5750  -19.5910 H   0  0  0  0  0  0  0  0  0  0  0  0
  -26.3780   26.8020  -16.7890 O   0  0  0  0  0  0  0  0  0  0  0  0
  -27.4090   25.5480  -16.8590 P   0  0  0  0  0  0  0  0  0  0  0  0
  -28.7600   26.0760  -17.4830 O   0  0  0  0  0  0  0  0  0  0  0  0
  -26.7650   24.4960  -17.7460 O   0  0  0  0  0  0  0  0  0  0  0  0
  -27.6500   25.0690  -15.4760 O   0  0  0  0  0  0  0  0  0  0  0  0
  -20.1920   26.2790  -21.2730 P   0  0  1  0  0  0  0  0  0  0  0  0
  -19.4350   24.9900  -21.1670 O   0  0  0  0  0  0  0  0  0  0  0  0
  -20.7890   26.6850  -22.5720 O   0  0  0  0  0  0  0  0  0  0  0  0
  -19.2040   27.4240  -20.7470 O   0  0  0  0  0  0  0  0  0  0  0  0
  -18.3340   28.1190  -21.6880 C   0  0  0  0  0  0  0  0  0  0  0  0
  -16.9040   27.9740  -21.1870 C   0  0  0  0  0  0  0  0  0  0  0  0
  -16.0490   28.9900  -21.9570 C   0  0  0  0  0  0  0  0  0  0  0  0
  -16.8790   28.3230  -19.6840 C   0  0  0  0  0  0  0  0  0  0  0  0
  -16.3210   26.5630  -21.3850 C   0  0  1  0  0  0  0  0  0  0  0  0
  -16.9160   25.9510  -22.5150 O   0  0  0  0  0  0  0  0  0  0  0  0
  -16.3430   26.0370  -23.2680 H   0  0  0  0  0  0  0  0  0  0  0  0
  -14.8090   26.5050  -21.5420 C   0  0  0  0  0  0  0  0  0  0  0  0
  -14.2980   25.9810  -22.5350 O   0  0  0  0  0  0  0  0  0  0  0  0
  -14.0910   26.9700  -20.5340 N   0  0  0  0  0  0  0  0  0  0  0  0
  -14.5890   27.3900  -19.7480 H   0  0  0  0  0  0  0  0  0  0  0  0
  -12.6320   26.9230  -20.4690 C   0  0  0  0  0  0  0  0  0  0  0  0
  -12.0070   28.1310  -19.7630 C   0  0  0  0  0  0  0  0  0  0  0  0
  -12.0670   28.0390  -18.2470 C   0  0  0  0  0  0  0  0  0  0  0  0
  -12.2790   26.8270  -17.7000 N   0  0  0  0  0  0  0  0  0  0  0  0
  -12.3800   26.0350  -18.3340 H   0  0  0  0  0  0  0  0  0  0  0  0
  -12.0570   29.0480  -17.5580 O   0  0  0  0  0  0  0  0  0  0  0  0
  -12.3750   26.5640  -16.2840 C   0  0  0  0  0  0  0  0  0  0  0  0
  -13.7800   26.3270  -15.8270 C   0  0  0  0  0  0  0  0  0  0  0  0
  -13.7930   26.3230  -14.0200 S   0  0  0  0  0  0  0  0  0  0  0  0
  -13.5240   24.5970  -13.6560 C   0  0  0  0  0  0  0  0  0  0  0  0
  -12.5550   24.0430  -14.1410 O   0  0  0  0  0  0  0  0  0  0  0  0
  -14.5780   23.8920  -12.8940 C   0  0  0  0  0  0  0  0  0  0  0  0
  -14.6690   22.5060  -12.8020 C   0  0  0  0  0  0  0  0  0  0  0  0
  -15.6440   21.9140  -12.0130 C   0  0  0  0  0  0  0  0  0  0  0  0
  -16.5270   22.6780  -11.2990 C   0  0  0  0  0  0  0  0  0  0  0  0
  -16.4670   24.0610  -11.4040 C   0  0  0  0  0  0  0  0  0  0  0  0
  -15.5000   24.6620  -12.1960 C   0  0  0  0  0  0  0  0  0  0  0  0
  1 34  1  0  0  0  0
  1  2  1  0  0  0  0
  2  3  2  6  0  0  0
  2  4  1  0  0  0  0
  2  5  1  0  0  0  0
  5  6  1  0  0  0  0
  7  6  1  6  0  0  0
  7 11  1  0  0  0  0
  7  8  1  0  0  0  0
  9  8  1  6  0  0  0
  9 12  1  0  0  0  0
  9 10  1  0  0  0  0
 10 27  1  1  0  0  0
 10 11  1  0  0  0  0
 11 29  1  1  0  0  0
 12 13  1  0  0  0  0
 12 25  1  6  0  0  0
 13 15  1  1  0  0  0
 13 14  1  0  0  0  0
 14 16  1  0  0  0  0
 14 17  1  0  0  0  0
 15 19  2  0  0  0  0
 15 24  1  0  0  0  0
 16 18  1  0  0  0  0
 18 20  1  0  0  0  0
 18 19  1  0  0  0  0
 19 21  1  0  0  0  0
 21 23  1  0  0  0  0
 21 22  1  0  0  0  0
 24 26  1  0  0  0  0
 24 25  1  0  0  0  0
 27 28  1  0  0  0  0
 29 30  1  0  0  0  0
 30 32  2  0  0  0  0
 30 31  1  0  0  0  0
 30 33  1  0  0  0  0
 34 36  2  6  0  0  0
 34 35  1  0  0  0  0
 34 37  1  0  0  0  0
 37 38  1  0  0  0  0
 38 39  1  0  0  0  0
 39 40  1  0  0  0  0
 39 42  1  0  0  0  0
 39 41  1  0  0  0  0
 42 43  1  6  0  0  0
 42 45  1  0  0  0  0
 43 44  1  0  0  0  0
 45 46  2  0  0  0  0
 45 47  1  0  0  0  0
 47 49  1  0  0  0  0
 47 48  1  0  0  0  0
 49 50  1  0  0  0  0
 50 51  1  0  0  0  0
 51 52  1  0  0  0  0
 51 54  2  0  0  0  0
 52 53  1  0  0  0  0
 52 55  1  0  0  0  0
 55 56  1  0  0  0  0
 56 57  1  0  0  0  0
 57 58  1  0  0  0  0
 58 59  2  0  0  0  0
 58 60  1  0  0  0  0
 60 61  2  0  0  0  0
 60 65  1  0  0  0  0
 61 62  1  0  0  0  0
 62 63  2  0  0  0  0
 63 64  1  0  0  0  0
 64 65  2  0  0  0  0
M  END
>  <MODEL>
1

>  <REMARK>
 VINA RESULT:   -10.027      0.000      0.000
 INTER + INTRA:         -25.934
 INTER:                 -22.923
 INTRA:                  -3.010
 UNBOUND:                -3.010
  23 active torsions:
  status: ('A' for Active; 'I' for Inactive)
    1  A    between atoms: P_4  and  O_35 
    2  A    between atoms: P_4  and  O_18 
    3  A    between atoms: C_5  and  C_11 
    4  A    between atoms: C_5  and  S_7 
    5  A    between atoms: C_6  and  N_55 
    6  A    between atoms: S_7  and  C_15 
    7  A    between atoms: P_10  and  O_18 
    8  A    between atoms: P_10  and  O_43 
    9  A    between atoms: C_12  and  O_13 
   10  A    between atoms: C_15  and  C_23 
   11  A    between atoms: C_20  and  O_21 
   12  A    between atoms: O_21  and  P_22 
   13  A    between atoms: C_23  and  N_29 
   14  A    between atoms: C_27  and  C_34 
       I    between atoms: N_29  and  C_37 
   15  A    between atoms: C_34  and  O_35 
   16  A    between atoms: C_37  and  C_45 
   17  A    between atoms: O_43  and  C_63 
   18  A    between atoms: C_45  and  C_50 
   19  A    between atoms: C_50  and  N_53 
       I    between atoms: N_53  and  C_57 
   20  A    between atoms: C_57  and  C_59 
   21  A    between atoms: C_59  and  C_62 
   22  A    between atoms: C_59  and  O_60 
   23  A    between atoms: C_62  and  C_63 

>  <COMPND>
    /home/daniil/Downloads/ml_docking_review/databases/Vina/outputs/7PK0_BYC/7PK0_BYC.pdbqt 

>  <AUTHOR>
    GENERATED BY OPEN BABEL 3.2.1

>  <MASTER>
        0    0    0    0    0    0    0    0   65    0   65    0

$$$$
