../../databases/Vina/outputs/7JGW_V9S/7JGW_V9S1.pdb
 OpenBabel08242616453D

 50 55  0  0  1  0  0  0  0  0999 V2000
   -5.2510   -0.8560   26.1590 C   0  0  0  0  0  0  0  0  0  0  0  0
   -5.8570    0.9200   27.6140 C   0  0  0  0  0  0  0  0  0  0  0  0
   -4.6500    1.4040   25.5670 C   0  0  0  0  0  0  0  0  0  0  0  0
   -5.2200    1.8380   26.7600 C   0  0  0  0  0  0  0  0  0  0  0  0
   -5.8380   -0.4470   27.3280 C   0  0  0  0  0  0  0  0  0  0  0  0
   -6.5450   -1.3910   28.2900 C   0  0  0  0  0  0  0  0  0  0  0  0
   -6.7880   -2.7620   27.6790 C   0  0  0  0  0  0  0  0  0  0  0  0
   -5.5280   -3.2530   26.9700 C   0  0  0  0  0  0  0  0  0  0  0  0
   -4.6570    0.0350   25.3100 C   0  0  0  0  0  0  0  0  0  0  0  0
   -5.2520   -2.2900   25.8280 C   0  0  2  0  0  0  0  0  0  0  0  0
   -4.8830   -2.6970   24.6720 N   0  0  0  0  0  0  0  0  0  0  0  0
   -4.5100   -2.0120   24.0160 H   0  0  0  0  0  0  0  0  0  0  0  0
   -4.9600   -3.9790   24.2760 N   0  0  0  0  0  0  0  0  0  0  0  0
   -5.0070   -4.7470   24.9470 H   0  0  0  0  0  0  0  0  0  0  0  0
   -4.9720   -4.1950   22.9670 C   0  0  1  0  0  0  0  0  0  0  0  0
   -4.8480   -5.4120   22.4050 N   0  0  0  0  0  0  0  0  0  0  0  0
   -4.9250   -5.2930   21.0360 C   0  0  0  0  0  0  0  0  0  0  0  0
   -4.7170   -6.2860   22.9150 H   0  0  0  0  0  0  0  0  0  0  0  0
   -5.1750   -3.9840   20.5240 C   0  0  0  0  0  0  0  0  0  0  0  0
   -5.2460   -2.9610   21.8290 S   0  0  0  0  0  0  0  0  0  0  0  0
   -4.7550   -6.4810   20.1460 C   0  0  0  0  0  0  0  0  0  0  0  0
   -4.9530   -6.3350   18.9490 O   0  0  0  0  0  0  0  0  0  0  0  0
   -4.2930   -7.6110   20.7080 N   0  0  0  0  0  0  0  0  0  0  0  0
   -4.1110   -7.6230   21.7120 H   0  0  0  0  0  0  0  0  0  0  0  0
   -4.0430   -8.8210   19.9350 C   0  0  0  0  0  0  0  0  0  0  0  0
   -2.5950   -9.1350   19.6090 C   0  0  0  0  0  0  0  0  0  0  0  0
   -2.2690   -9.8270   18.4540 C   0  0  0  0  0  0  0  0  0  0  0  0
   -0.9460  -10.0800   18.1220 C   0  0  0  0  0  0  0  0  0  0  0  0
    0.0770   -9.5970   18.9470 C   0  0  0  0  0  0  0  0  0  0  0  0
   -0.2380   -8.8610   20.0830 C   0  0  0  0  0  0  0  0  0  0  0  0
   -1.5790   -8.6260   20.3820 C   0  0  0  0  0  0  0  0  0  0  0  0
   -3.9650    2.3110   24.6190 C   0  0  1  0  0  0  0  0  0  0  0  0
   -3.7780    2.0090   23.2870 C   0  0  0  0  0  0  0  0  0  0  0  0
   -3.1460    2.8990   22.4200 C   0  0  0  0  0  0  0  0  0  0  0  0
   -2.6580    4.1050   22.9460 C   0  0  0  0  0  0  0  0  0  0  0  0
   -2.9210    4.3810   24.2870 C   0  0  0  0  0  0  0  0  0  0  0  0
   -3.5560    3.5090   25.1060 N   0  0  0  0  0  0  0  0  0  0  0  0
   -3.7260    3.7520   26.0820 H   0  0  0  0  0  0  0  0  0  0  0  0
   -2.0320    5.0400   22.1680 O   0  0  0  0  0  0  0  0  0  0  0  0
   -1.5630    4.6490   20.8800 C   0  0  0  0  0  0  0  0  0  0  0  0
   -0.0180    4.4990   20.9510 C   0  0  0  0  0  0  0  0  0  0  0  0
    0.5470    4.8610   19.5970 C   0  0  0  0  0  0  0  0  0  0  0  0
    0.1150    4.1740   18.4620 C   0  0  0  0  0  0  0  0  0  0  0  0
    0.5890    4.5630   17.2060 C   0  0  0  0  0  0  0  0  0  0  0  0
    1.4740    5.6190   17.0650 C   0  0  0  0  0  0  0  0  0  0  0  0
    1.8900    6.3210   18.1900 C   0  0  0  0  0  0  0  0  0  0  0  0
    1.4160    5.9450   19.4440 C   0  0  0  0  0  0  0  0  0  0  0  0
   -2.5310    5.6720   24.9220 C   0  0  0  0  0  0  0  0  0  0  0  0
   -1.2720    5.8240   25.2710 O   0  0  0  0  0  0  0  0  0  0  0  0
   -3.3890    6.5180   25.0970 O   0  0  0  0  0  0  0  0  0  0  0  0
  1  9  2  0  0  0  0
  1 10  1  0  0  0  0
  1  5  1  0  0  0  0
  2  4  1  0  0  0  0
  2  5  2  0  0  0  0
  3  9  1  0  0  0  0
  3  4  2  0  0  0  0
  5  6  1  0  0  0  0
  6  7  1  0  0  0  0
  7  8  1  0  0  0  0
  8 10  1  0  0  0  0
 10 11  1  1  0  0  0
 11 12  1  0  0  0  0
 11 13  1  0  0  0  0
 13 14  1  0  0  0  0
 15 13  1  1  0  0  0
 15 20  1  0  0  0  0
 15 16  1  0  0  0  0
 16 17  1  0  0  0  0
 16 18  1  0  0  0  0
 17 21  1  0  0  0  0
 17 19  2  0  0  0  0
 19 20  1  0  0  0  0
 21 22  2  0  0  0  0
 21 23  1  0  0  0  0
 23 25  1  0  0  0  0
 23 24  1  0  0  0  0
 25 26  1  0  0  0  0
 26 27  2  0  0  0  0
 26 31  1  0  0  0  0
 27 28  1  0  0  0  0
 28 29  2  0  0  0  0
 29 30  1  0  0  0  0
 30 31  2  0  0  0  0
 32  3  1  6  0  0  0
 32 33  1  0  0  0  0
 32 37  1  0  0  0  0
 33 34  2  0  0  0  0
 34 35  1  0  0  0  0
 35 39  1  0  0  0  0
 35 36  2  0  0  0  0
 36 48  1  0  0  0  0
 36 37  1  0  0  0  0
 37 38  1  0  0  0  0
 39 40  1  0  0  0  0
 40 41  1  0  0  0  0
 41 42  1  0  0  0  0
 42 43  2  0  0  0  0
 42 47  1  0  0  0  0
 43 44  1  0  0  0  0
 44 45  2  0  0  0  0
 45 46  1  0  0  0  0
 46 47  2  0  0  0  0
 48 50  2  0  0  0  0
 48 49  1  0  0  0  0
M  END
>  <MODEL>
1

>  <REMARK>
 VINA RESULT:   -12.997      0.000      0.000
 INTER + INTRA:         -22.844
 INTER:                 -21.354
 INTRA:                  -1.490
 UNBOUND:                -1.490
  11 active torsions:
  status: ('A' for Active; 'I' for Inactive)
    1  A    between atoms: C_6  and  CA_8 
    2  A    between atoms: C_9  and  O_10 
    3  A    between atoms: O_10  and  C_11 
    4  A    between atoms: C_11  and  C_12 
    5  A    between atoms: C_12  and  C_13 
    6  A    between atoms: C_22  and  C_23 
    7  A    between atoms: N_31  and  N_33 
    8  A    between atoms: N_33  and  C_35 
    9  A    between atoms: C_39  and  C_40 
       I    between atoms: C_40  and  N_42 
   10  A    between atoms: N_42  and  C_44 
   11  A    between atoms: C_44  and  C_45 

>  <COMPND>
    /home/daniil/Downloads/ml_docking_review/databases/Vina/outputs/7JGW_V9S/7JGW_V9S.pdbqt 

>  <AUTHOR>
    GENERATED BY OPEN BABEL 3.2.1

>  <MASTER>
        0    0    0    0    0    0    0    0   50    0   50    0

$$$$
