../../databases/Vina/outputs/7TSF_H4B/7TSF_H4B1.pdb
 OpenBabel08242616453D

 25 26  0  0  1  0  0  0  0  0999 V2000
    9.9100    2.4990   34.3020 N   0  0  0  0  0  0  0  0  0  0  0  0
   10.6970    2.6970   34.9210 H   0  0  0  0  0  0  0  0  0  0  0  0
   10.1390    2.0730   33.0410 C   0  0  2  0  0  0  0  0  0  0  0  0
    9.1070    1.7870   32.2120 N   0  0  0  0  0  0  0  0  0  0  0  0
    9.2980    1.4550   31.2660 H   0  0  0  0  0  0  0  0  0  0  0  0
    7.8250    1.9370   32.6210 C   0  0  0  0  0  0  0  0  0  0  0  0
    6.8580    1.6750   31.8590 O   0  0  0  0  0  0  0  0  0  0  0  0
    7.5860    2.3900   33.9060 C   0  0  0  0  0  0  0  0  0  0  0  0
    8.6540    2.6630   34.7460 C   0  0  0  0  0  0  0  0  0  0  0  0
    6.3270    2.5560   34.3620 N   0  0  0  0  0  0  0  0  0  0  0  0
    5.5370    2.0580   33.9520 H   0  0  0  0  0  0  0  0  0  0  0  0
    8.4560    3.1010   36.0200 N   0  0  0  0  0  0  0  0  0  0  0  0
    9.2650    3.3640   36.5820 H   0  0  0  0  0  0  0  0  0  0  0  0
    6.1570    3.4890   35.4720 C   0  0  2  0  0  0  0  0  0  0  0  0
    7.1300    3.2070   36.6060 C   0  0  0  0  0  0  0  0  0  0  0  0
    4.7340    3.4690   36.0050 C   0  0  1  0  0  0  0  0  0  0  0  0
    4.4150    2.1520   36.4620 O   0  0  0  0  0  0  0  0  0  0  0  0
    5.1210    1.5590   36.2340 H   0  0  0  0  0  0  0  0  0  0  0  0
    4.5540    4.4790   37.1330 C   0  0  2  0  0  0  0  0  0  0  0  0
    3.0870    4.4870   37.5320 C   0  0  0  0  0  0  0  0  0  0  0  0
    4.9500    5.7880   36.6780 O   0  0  0  0  0  0  0  0  0  0  0  0
    5.0260    6.3740   37.4210 H   0  0  0  0  0  0  0  0  0  0  0  0
   11.4190    1.9160   32.6300 N   0  0  0  0  0  0  0  0  0  0  0  0
   11.7220    1.0480   32.1890 H   0  0  0  0  0  0  0  0  0  0  0  0
   12.0800    2.6770   32.7880 H   0  0  0  0  0  0  0  0  0  0  0  0
  1  3  1  0  0  0  0
  1  9  1  0  0  0  0
  1  2  1  0  0  0  0
  3  4  1  0  0  0  0
  3 23  1  1  0  0  0
  4  5  1  0  0  0  0
  4  6  1  0  0  0  0
  6  7  2  0  0  0  0
  6  8  1  0  0  0  0
  8 10  1  0  0  0  0
  8  9  2  0  0  0  0
  9 12  1  0  0  0  0
 10 11  1  0  0  0  0
 10 14  1  0  0  0  0
 12 13  1  0  0  0  0
 12 15  1  0  0  0  0
 14 16  1  1  0  0  0
 14 15  1  0  0  0  0
 16 17  1  1  0  0  0
 16 19  1  0  0  0  0
 17 18  1  0  0  0  0
 19 21  1  0  0  0  0
 19 20  1  6  0  0  0
 21 22  1  0  0  0  0
 23 24  1  0  0  0  0
 23 25  1  0  0  0  0
M  END
>  <MODEL>
1

>  <REMARK>
 VINA RESULT:    -8.507      0.000      0.000
 INTER + INTRA:         -10.406
 INTER:                 -10.248
 INTRA:                  -0.159
 UNBOUND:                -0.159
  5 active torsions:
  status: ('A' for Active; 'I' for Inactive)
    1  A    between atoms: C_3  and  N_4 
    2  A    between atoms: C_17  and  C_19 
    3  A    between atoms: C_19  and  O_20 
    4  A    between atoms: C_19  and  C_22 
    5  A    between atoms: C_22  and  O_24 

>  <COMPND>
    /home/daniil/Downloads/ml_docking_review/databases/Vina/outputs/7TSF_H4B/7TSF_H4B.pdbqt 

>  <AUTHOR>
    GENERATED BY OPEN BABEL 3.2.1

>  <MASTER>
        0    0    0    0    0    0    0    0   25    0   25    0

$$$$
