../../databases/Vina/outputs/6XHT_V2V/6XHT_V2V1.pdb
 OpenBabel08242611493D

 41 41  0  0  1  0  0  0  0  0999 V2000
   10.7190   -8.5740  110.5810 O   0  0  0  0  0  0  0  0  0  0  0  0
   11.4530  -10.6260  111.8580 O   0  0  0  0  0  0  0  0  0  0  0  0
   11.1220  -10.0100  110.5250 P   0  0  2  0  0  0  0  0  0  0  0  0
   12.4690  -10.1830  109.5340 O   0  0  0  0  0  0  0  0  0  0  0  0
   12.2540   -9.8840  108.1430 C   0  0  0  0  0  0  0  0  0  0  0  0
   13.2780   -8.8820  107.6360 C   0  0  0  0  0  0  0  0  0  0  0  0
   12.7470   -7.7020  107.4070 C   0  0  2  0  0  0  0  0  0  0  0  0
   13.6670   -6.6760  108.1930 C   0  0  1  0  0  0  0  0  0  0  0  0
   14.9590   -6.8500  107.8760 O   0  0  0  0  0  0  0  0  0  0  0  0
   15.5040   -6.1980  108.3000 H   0  0  0  0  0  0  0  0  0  0  0  0
   13.0540   -5.3170  107.6820 C   0  0  2  0  0  0  0  0  0  0  0  0
   12.7450   -4.5430  108.8950 N   0  0  0  0  0  0  0  0  0  0  0  0
   13.3700   -3.2230  109.0500 C   0  0  0  0  0  0  0  0  0  0  0  0
   11.8690   -5.1210  109.8880 C   0  0  0  0  0  0  0  0  0  0  0  0
   14.0950   -2.8000  108.1960 O   0  0  0  0  0  0  0  0  0  0  0  0
   13.0810   -2.4740  110.2890 N   0  0  0  0  0  0  0  0  0  0  0  0
   12.2140   -3.0520  111.2970 C   0  0  1  0  0  0  0  0  0  0  0  0
   13.4910   -1.5520  110.4360 H   0  0  0  0  0  0  0  0  0  0  0  0
   11.5800   -4.3830  111.1370 C   0  0  0  0  0  0  0  0  0  0  0  0
   11.9620   -2.3050  112.5160 N   0  0  0  0  0  0  0  0  0  0  0  0
   11.9510   -5.6770  107.1120 O   0  0  0  0  0  0  0  0  0  0  0  0
   11.3720   -7.6250  107.9760 O   0  0  0  0  0  0  0  0  0  0  0  0
   10.9820   -6.8020  107.7030 H   0  0  0  0  0  0  0  0  0  0  0  0
    9.8720  -10.8890  109.8780 O   0  0  0  0  0  0  0  0  0  0  0  0
    8.4460  -10.3350  109.2370 P   0  0  1  0  0  0  0  0  0  0  0  0
    7.7490  -11.4310  108.4160 O   0  0  0  0  0  0  0  0  0  0  0  0
    7.5500   -9.8130  110.3620 O   0  0  0  0  0  0  0  0  0  0  0  0
    8.8060   -9.1050  108.2020 O   0  0  0  0  0  0  0  0  0  0  0  0
    7.7100   -8.5560  107.4410 C   0  0  0  0  0  0  0  0  0  0  0  0
    8.2090   -8.5130  105.9420 C   0  0  1  0  0  0  0  0  0  0  0  0
    9.6090   -8.7090  105.8430 O   0  0  0  0  0  0  0  0  0  0  0  0
   10.0840   -7.8860  105.8680 H   0  0  0  0  0  0  0  0  0  0  0  0
    7.4400   -9.5280  105.1270 C   0  0  2  0  0  0  0  0  0  0  0  0
    7.7200   -9.4090  103.5990 C   0  0  2  0  0  0  0  0  0  0  0  0
    6.5280   -9.9600  102.8360 C   0  0  0  0  0  0  0  0  0  0  0  0
    6.3210  -11.3580  103.0520 O   0  0  0  0  0  0  0  0  0  0  0  0
    6.2830  -11.5920  103.9720 H   0  0  0  0  0  0  0  0  0  0  0  0
    8.8960  -10.1140  103.1770 O   0  0  0  0  0  0  0  0  0  0  0  0
    9.3520  -10.4280  103.9490 H   0  0  0  0  0  0  0  0  0  0  0  0
    6.0600   -9.3570  105.4190 O   0  0  0  0  0  0  0  0  0  0  0  0
    5.5690   -9.6130  104.6470 H   0  0  0  0  0  0  0  0  0  0  0  0
  2  3  1  0  0  0  0
  3  1  2  1  0  0  0
  3  4  1  0  0  0  0
  3 24  1  0  0  0  0
  4  5  1  0  0  0  0
  5  6  1  0  0  0  0
  7  6  1  1  0  0  0
  7 22  1  0  0  0  0
  7  8  1  0  0  0  0
  8 11  1  0  0  0  0
  8  9  1  6  0  0  0
  9 10  1  0  0  0  0
 11 21  1  1  0  0  0
 11 12  1  0  0  0  0
 12 13  1  0  0  0  0
 12 14  1  0  0  0  0
 13 15  2  0  0  0  0
 13 16  1  0  0  0  0
 14 19  2  0  0  0  0
 16 18  1  0  0  0  0
 16 17  1  0  0  0  0
 17 19  1  0  0  0  0
 17 20  1  1  0  0  0
 22 23  1  0  0  0  0
 24 25  1  0  0  0  0
 25 28  1  0  0  0  0
 25 26  2  6  0  0  0
 25 27  1  0  0  0  0
 28 29  1  0  0  0  0
 30 29  1  1  0  0  0
 30 33  1  0  0  0  0
 30 31  1  0  0  0  0
 31 32  1  0  0  0  0
 33 34  1  0  0  0  0
 33 40  1  6  0  0  0
 34 35  1  6  0  0  0
 34 38  1  0  0  0  0
 35 36  1  0  0  0  0
 36 37  1  0  0  0  0
 38 39  1  0  0  0  0
 40 41  1  0  0  0  0
M  END
>  <MODEL>
1

>  <REMARK>
 VINA RESULT:    -7.612      0.000      0.000
 INTER + INTRA:         -17.296
 INTER:                 -15.177
 INTRA:                  -2.119
 UNBOUND:                -2.119
  20 active torsions:
  status: ('A' for Active; 'I' for Inactive)
    1  A    between atoms: C_5  and  C_6 
       I    between atoms: C_5  and  N_15 
    2  A    between atoms: C_6  and  O_38 
    3  A    between atoms: C_6  and  C_7 
    4  A    between atoms: C_7  and  O_36 
    5  A    between atoms: C_7  and  C_8 
    6  A    between atoms: C_8  and  C_9 
    7  A    between atoms: C_9  and  O_21 
    8  A    between atoms: C_10  and  C_11 
    9  A    between atoms: C_10  and  O_27 
   10  A    between atoms: C_11  and  O_34 
   11  A    between atoms: C_11  and  C_12 
   12  A    between atoms: C_12  and  C_13 
   13  A    between atoms: C_12  and  O_32 
   14  A    between atoms: C_13  and  C_14 
   15  A    between atoms: C_13  and  O_30 
   16  A    between atoms: C_14  and  O_28 
   17  A    between atoms: O_21  and  P_40 
   18  A    between atoms: O_24  and  P_40 
   19  A    between atoms: O_24  and  P_41 
   20  A    between atoms: O_27  and  P_41 

>  <COMPND>
    /home/daniil/Downloads/ml_docking_review/databases/Vina/outputs/6XHT_V2V/6XHT_V2V.pdbqt 

>  <AUTHOR>
    GENERATED BY OPEN BABEL 3.2.1

>  <MASTER>
        0    0    0    0    0    0    0    0   41    0   41    0

$$$$
