../../databases/Vina/outputs/8E77_ULP/8E77_ULP1.pdb
 OpenBabel08242616453D

 63 66  0  0  1  0  0  0  0  0999 V2000
   15.4000    2.9010   26.1220 C   0  0  2  0  0  0  0  0  0  0  0  0
   16.4610    3.4780   25.2010 C   0  0  1  0  0  0  0  0  0  0  0  0
   17.8980    3.1950   25.6350 C   0  0  2  0  0  0  0  0  0  0  0  0
   18.0570    3.2460   27.1600 C   0  0  1  0  0  0  0  0  0  0  0  0
   16.8810    2.6370   27.9420 C   0  0  2  0  0  0  0  0  0  0  0  0
   15.6450    3.1790   27.4800 O   0  0  0  0  0  0  0  0  0  0  0  0
   15.3590    1.5310   25.9050 O   0  0  0  0  0  0  0  0  0  0  0  0
   14.0050    0.7270   26.1530 P   0  0  1  0  0  0  0  0  0  0  0  0
   13.6730   -0.2890   25.0900 O   0  0  0  0  0  0  0  0  0  0  0  0
   14.1210    0.1990   27.5210 O   0  0  0  0  0  0  0  0  0  0  0  0
   13.0300    1.9790   26.2130 O   0  0  0  0  0  0  0  0  0  0  0  0
   11.5700    2.1360   26.8260 P   0  0  1  0  0  0  0  0  0  0  0  0
   10.8660    3.0580   25.8980 O   0  0  0  0  0  0  0  0  0  0  0  0
   11.0010    0.7740   27.0520 O   0  0  0  0  0  0  0  0  0  0  0  0
   11.7750    2.8960   28.2240 O   0  0  0  0  0  0  0  0  0  0  0  0
   11.6070    4.3050   28.3170 C   0  0  0  0  0  0  0  0  0  0  0  0
   12.9120    4.9850   27.9900 C   0  0  2  0  0  0  0  0  0  0  0  0
   13.5080    5.8020   29.1450 C   0  0  2  0  0  0  0  0  0  0  0  0
   13.1410    7.2430   28.7900 C   0  0  2  0  0  0  0  0  0  0  0  0
   13.1590    7.2060   27.2630 C   0  0  1  0  0  0  0  0  0  0  0  0
   12.7340    5.9130   26.8860 O   0  0  0  0  0  0  0  0  0  0  0  0
   14.9070    5.6150   29.2420 O   0  0  0  0  0  0  0  0  0  0  0  0
   15.1760    5.4720   30.1420 H   0  0  0  0  0  0  0  0  0  0  0  0
   14.0670    8.1970   29.2540 O   0  0  0  0  0  0  0  0  0  0  0  0
   14.6530    8.4450   28.5490 H   0  0  0  0  0  0  0  0  0  0  0  0
   12.2170    8.1980   26.7380 N   0  0  0  0  0  0  0  0  0  0  0  0
   10.8770    8.0810   27.0160 C   0  0  0  0  0  0  0  0  0  0  0  0
    9.9780    8.9800   26.6150 C   0  0  0  0  0  0  0  0  0  0  0  0
   10.4250   10.1220   25.8820 C   0  0  0  0  0  0  0  0  0  0  0  0
    9.7140   11.0190   25.4580 O   0  0  0  0  0  0  0  0  0  0  0  0
   11.7860   10.1980   25.6790 N   0  0  0  0  0  0  0  0  0  0  0  0
   12.7320    9.2980   26.0670 C   0  0  0  0  0  0  0  0  0  0  0  0
   12.1230   11.0220   25.1810 H   0  0  0  0  0  0  0  0  0  0  0  0
   13.9230    9.4500   25.8020 O   0  0  0  0  0  0  0  0  0  0  0  0
   16.2420    3.0040   23.8530 N   0  0  0  0  0  0  0  0  0  0  0  0
   16.1350    3.7980   22.7980 C   0  0  0  0  0  0  0  0  0  0  0  0
   16.3780    4.9870   22.8670 O   0  0  0  0  0  0  0  0  0  0  0  0
   15.7220    3.1270   21.5220 C   0  0  0  0  0  0  0  0  0  0  0  0
   16.1640    1.9980   23.7050 H   0  0  0  0  0  0  0  0  0  0  0  0
   16.9160    2.8330   29.4640 C   0  0  0  0  0  0  0  0  0  0  0  0
   17.3510    3.8000   29.9410 O   0  0  0  0  0  0  0  0  0  0  0  0
   16.5260    1.9490   30.1500 O   0  0  0  0  0  0  0  0  0  0  0  0
   18.6740    4.2610   24.9930 N   0  0  0  0  0  0  0  0  0  0  0  0
   19.9370    4.2430   24.8490 C   0  0  0  0  0  0  0  0  0  0  0  0
   18.1660    5.0710   24.6390 H   0  0  0  0  0  0  0  0  0  0  0  0
   20.6010    5.3670   24.1480 C   0  0  0  0  0  0  0  0  0  0  0  0
   20.1330    5.7650   22.8760 C   0  0  0  0  0  0  0  0  0  0  0  0
   20.7110    6.8810   22.2420 C   0  0  1  0  0  0  0  0  0  0  0  0
   21.7310    7.5220   22.8090 N   0  0  0  0  0  0  0  0  0  0  0  0
   20.2500    7.3650   20.8950 C   0  0  0  0  0  0  0  0  0  0  0  0
   22.2010    7.1280   24.0170 C   0  0  0  0  0  0  0  0  0  0  0  0
   22.1600    8.3140   22.3310 H   0  0  0  0  0  0  0  0  0  0  0  0
   21.6740    6.0790   24.7160 C   0  0  0  0  0  0  0  0  0  0  0  0
   19.1690    5.0920   22.2580 O   0  0  0  0  0  0  0  0  0  0  0  0
   19.3530    4.5700   21.4860 H   0  0  0  0  0  0  0  0  0  0  0  0
   22.2160    5.7670   26.0840 C   0  0  0  0  0  0  0  0  0  0  0  0
   22.9060    4.4820   26.0620 O   0  0  0  0  0  0  0  0  0  0  0  0
   23.2350    3.7980   27.4850 P   0  0  0  0  0  0  0  0  0  0  0  0
   24.2560    2.7410   27.2380 O   0  0  0  0  0  0  0  0  0  0  0  0
   21.9440    3.1880   28.0250 O   0  0  0  0  0  0  0  0  0  0  0  0
   23.7230    4.9480   28.3160 O   0  0  0  0  0  0  0  0  0  0  0  0
   19.1970    2.4980   27.5530 O   0  0  0  0  0  0  0  0  0  0  0  0
   19.2930    1.8220   26.8930 H   0  0  0  0  0  0  0  0  0  0  0  0
  1  2  1  0  0  0  0
  1  7  1  1  0  0  0
  1  6  1  0  0  0  0
  2 35  1  6  0  0  0
  2  3  1  0  0  0  0
  3 43  1  6  0  0  0
  3  4  1  0  0  0  0
  4 62  1  6  0  0  0
  4  5  1  0  0  0  0
  5  6  1  0  0  0  0
  5 40  1  1  0  0  0
  7  8  1  0  0  0  0
  8  9  2  6  0  0  0
  8 11  1  0  0  0  0
  8 10  1  0  0  0  0
 11 12  1  0  0  0  0
 12 13  2  6  0  0  0
 12 14  1  0  0  0  0
 12 15  1  0  0  0  0
 15 16  1  0  0  0  0
 17 16  1  1  0  0  0
 17 21  1  0  0  0  0
 17 18  1  0  0  0  0
 18 19  1  0  0  0  0
 18 22  1  6  0  0  0
 19 20  1  0  0  0  0
 19 24  1  1  0  0  0
 20 26  1  6  0  0  0
 20 21  1  0  0  0  0
 22 23  1  0  0  0  0
 24 25  1  0  0  0  0
 26 32  1  0  0  0  0
 26 27  1  0  0  0  0
 27 28  2  0  0  0  0
 28 29  1  0  0  0  0
 29 30  2  0  0  0  0
 29 31  1  0  0  0  0
 31 33  1  0  0  0  0
 31 32  1  0  0  0  0
 32 34  2  0  0  0  0
 35 36  1  0  0  0  0
 35 39  1  0  0  0  0
 36 38  1  0  0  0  0
 36 37  2  0  0  0  0
 40 41  2  0  0  0  0
 40 42  1  0  0  0  0
 43 45  1  0  0  0  0
 43 44  1  0  0  0  0
 44 46  1  0  0  0  0
 46 47  2  0  0  0  0
 46 53  1  0  0  0  0
 47 48  1  0  0  0  0
 47 54  1  0  0  0  0
 48 50  1  6  0  0  0
 48 49  1  0  0  0  0
 49 52  1  0  0  0  0
 49 51  1  0  0  0  0
 51 53  2  0  0  0  0
 53 56  1  0  0  0  0
 54 55  1  0  0  0  0
 56 57  1  0  0  0  0
 57 58  1  0  0  0  0
 58 59  2  0  0  0  0
 58 60  1  0  0  0  0
 58 61  1  0  0  0  0
 62 63  1  0  0  0  0
M  END
>  <MODEL>
1

>  <REMARK>
 VINA RESULT:    -9.540      0.000      0.000
 INTER + INTRA:         -23.795
 INTER:                 -19.021
 INTRA:                  -4.774
 UNBOUND:                -4.774
  19 active torsions:
  status: ('A' for Active; 'I' for Inactive)
    1  A    between atoms: P_1  and  O_63 
    2  A    between atoms: N_2  and  C_23 
    3  A    between atoms: C_5  and  O_8 
    4  A    between atoms: P_14  and  O_54 
    5  A    between atoms: P_14  and  O_37 
    6  A    between atoms: P_15  and  O_38 
    7  A    between atoms: P_15  and  O_37 
    8  A    between atoms: C_18  and  O_38 
    9  A    between atoms: C_24  and  N_25 
       I    between atoms: N_25  and  C_57 
   10  A    between atoms: C_31  and  O_32 
   11  A    between atoms: C_34  and  N_35 
   12  A    between atoms: C_39  and  O_40 
   13  A    between atoms: C_42  and  O_43 
   14  A    between atoms: C_45  and  C_46 
   15  A    between atoms: C_47  and  C_53 
   16  A    between atoms: C_49  and  C_55 
   17  A    between atoms: C_51  and  C_52 
   18  A    between atoms: C_52  and  O_63 
   19  A    between atoms: C_53  and  O_54 

>  <COMPND>
    /home/daniil/Downloads/ml_docking_review/databases/Vina/outputs/8E77_ULP/8E77_ULP.pdbqt 

>  <AUTHOR>
    GENERATED BY OPEN BABEL 3.2.1

>  <MASTER>
        0    0    0    0    0    0    0    0   63    0   63    0

$$$$
