../../databases/Vina/outputs/7LCU_XTA/7LCU_XTA1.pdb
 OpenBabel08242616453D

 42 46  0  0  1  0  0  0  0  0999 V2000
  -63.1780  -36.4500   97.5150 C   0  0  1  0  0  0  0  0  0  0  0  0
  -64.1960  -36.8220   98.3760 C   0  0  0  0  0  0  0  0  0  0  0  0
  -65.4900  -36.4560   98.0380 C   0  0  0  0  0  0  0  0  0  0  0  0
  -65.6950  -35.7460   96.8720 C   0  0  0  0  0  0  0  0  0  0  0  0
  -64.6120  -35.4210   96.0670 C   0  0  0  0  0  0  0  0  0  0  0  0
  -63.3520  -35.7600   96.3950 N   0  0  0  0  0  0  0  0  0  0  0  0
  -62.5620  -35.4980   95.8050 H   0  0  0  0  0  0  0  0  0  0  0  0
  -61.9380  -36.8330   97.9350 O   0  0  0  0  0  0  0  0  0  0  0  0
  -61.3670  -38.0550   97.5820 C   0  0  0  0  0  0  0  0  0  0  0  0
  -62.1600  -39.1600   97.3380 C   0  0  0  0  0  0  0  0  0  0  0  0
  -61.6560  -40.3370   96.9540 N   0  0  0  0  0  0  0  0  0  0  0  0
  -60.3260  -40.3740   96.7810 C   0  0  2  0  0  0  0  0  0  0  0  0
  -62.2460  -41.1550   96.8010 H   0  0  0  0  0  0  0  0  0  0  0  0
  -59.4690  -39.3550   96.9570 N   0  0  0  0  0  0  0  0  0  0  0  0
  -60.0120  -38.2000   97.3650 C   0  0  0  0  0  0  0  0  0  0  0  0
  -58.4680  -39.4540   96.7910 H   0  0  0  0  0  0  0  0  0  0  0  0
  -59.7970  -41.5540   96.3620 N   0  0  0  0  0  0  0  0  0  0  0  0
  -60.4610  -42.8480   96.5850 C   0  0  0  0  0  0  0  0  0  0  0  0
  -60.2710  -43.7620   95.3920 C   0  0  0  0  0  0  0  0  0  0  0  0
  -58.8610  -43.9240   95.0960 N   0  0  0  0  0  0  0  0  0  0  0  0
  -58.6630  -44.8930   94.0180 C   0  0  0  0  0  0  0  0  0  0  0  0
  -58.3090  -42.6320   94.7350 C   0  0  0  0  0  0  0  0  0  0  0  0
  -58.4110  -41.6710   95.8990 C   0  0  0  0  0  0  0  0  0  0  0  0
  -66.6500  -36.8350   98.9250 C   0  0  0  0  0  0  0  0  0  0  0  0
  -67.9340  -36.2570   98.5000 N   0  0  0  0  0  0  0  0  0  0  0  0
  -68.1250  -34.9100   99.0680 C   0  0  0  0  0  0  0  0  0  0  0  0
  -69.4580  -34.2980   98.6380 C   0  0  0  0  0  0  0  0  0  0  0  0
  -70.6400  -35.1860   98.9880 C   0  0  2  0  0  0  0  0  0  0  0  0
  -70.3850  -36.5770   98.4420 C   0  0  0  0  0  0  0  0  0  0  0  0
  -69.0420  -37.1300   98.8990 C   0  0  0  0  0  0  0  0  0  0  0  0
  -71.9590  -34.6190   98.4480 C   0  0  0  0  0  0  0  0  0  0  0  0
  -72.2660  -33.2100   98.8350 C   0  0  0  0  0  0  0  0  0  0  0  0
  -72.0850  -32.7740   99.9530 O   0  0  0  0  0  0  0  0  0  0  0  0
  -72.7550  -32.5060   97.8460 O   0  0  0  0  0  0  0  0  0  0  0  0
  -64.7720  -34.6240   94.8290 C   0  0  0  0  0  0  0  0  0  0  0  0
  -65.8620  -33.7710   94.6880 C   0  0  0  0  0  0  0  0  0  0  0  0
  -65.9990  -33.0210   93.5450 C   0  0  0  0  0  0  0  0  0  0  0  0
  -67.3680  -31.9630   93.3940 Cl  0  0  0  0  0  0  0  0  0  0  0  0
  -65.0750  -33.0640   92.5250 C   0  0  0  0  0  0  0  0  0  0  0  0
  -63.9920  -33.9010   92.6820 C   0  0  0  0  0  0  0  0  0  0  0  0
  -62.8020  -33.9730   91.4130 Cl  0  0  0  0  0  0  0  0  0  0  0  0
  -63.8210  -34.6770   93.8100 C   0  0  0  0  0  0  0  0  0  0  0  0
  1  6  1  0  0  0  0
  1  8  1  1  0  0  0
  1  2  1  0  0  0  0
  2  3  2  0  0  0  0
  3  4  1  0  0  0  0
  3 24  1  0  0  0  0
  4  5  2  0  0  0  0
  5 35  1  0  0  0  0
  5  6  1  0  0  0  0
  6  7  1  0  0  0  0
  8  9  1  0  0  0  0
  9 10  1  0  0  0  0
  9 15  2  0  0  0  0
 10 11  1  0  0  0  0
 11 12  1  0  0  0  0
 11 13  1  0  0  0  0
 12 17  1  6  0  0  0
 12 14  1  0  0  0  0
 14 16  1  0  0  0  0
 14 15  1  0  0  0  0
 17 23  1  0  0  0  0
 17 18  1  0  0  0  0
 18 19  1  0  0  0  0
 19 20  1  0  0  0  0
 20 21  1  0  0  0  0
 20 22  1  0  0  0  0
 22 23  1  0  0  0  0
 24 25  1  0  0  0  0
 25 30  1  0  0  0  0
 25 26  1  0  0  0  0
 26 27  1  0  0  0  0
 27 28  1  0  0  0  0
 28 29  1  0  0  0  0
 28 31  1  6  0  0  0
 29 30  1  0  0  0  0
 31 32  1  0  0  0  0
 32 34  2  0  0  0  0
 32 33  1  0  0  0  0
 35 42  2  0  0  0  0
 35 36  1  0  0  0  0
 36 37  2  0  0  0  0
 37 39  1  0  0  0  0
 37 38  1  0  0  0  0
 39 40  2  0  0  0  0
 40 41  1  0  0  0  0
 40 42  1  0  0  0  0
M  END
>  <MODEL>
1

>  <REMARK>
 VINA RESULT:   -10.688      0.000      0.000
 INTER + INTRA:         -16.711
 INTER:                 -15.686
 INTRA:                  -1.024
 UNBOUND:                -1.024
  8 active torsions:
  status: ('A' for Active; 'I' for Inactive)
    1  A    between atoms: C_2  and  O_38 
    2  A    between atoms: C_3  and  O_38 
    3  A    between atoms: C_5  and  C_6 
    4  A    between atoms: C_6  and  N_33 
    5  A    between atoms: C_9  and  C_10 
    6  A    between atoms: C_10  and  C_11 
    7  A    between atoms: C_15  and  C_16 
    8  A    between atoms: C_25  and  N_30 

>  <COMPND>
    /home/daniil/Downloads/ml_docking_review/databases/Vina/outputs/7LCU_XTA/7LCU_XTA.pdbqt 

>  <AUTHOR>
    GENERATED BY OPEN BABEL 3.2.1

>  <MASTER>
        0    0    0    0    0    0    0    0   42    0   42    0

$$$$
