../../databases/Vina/outputs/7JY3_VUD/7JY3_VUD1.pdb
 OpenBabel08242616453D

 33 36  0  0  1  0  0  0  0  0999 V2000
    6.8160  -15.9250   46.7350 C   0  0  0  0  0  0  0  0  0  0  0  0
    6.9830  -17.4270   46.8330 C   0  0  2  0  0  0  0  0  0  0  0  0
    8.3890  -17.6830   46.7790 O   0  0  0  0  0  0  0  0  0  0  0  0
    8.8970  -18.7820   47.4390 C   0  0  0  0  0  0  0  0  0  0  0  0
    9.5940  -19.6950   46.6110 C   0  0  0  0  0  0  0  0  0  0  0  0
   10.1680  -20.8110   47.0720 N   0  0  0  0  0  0  0  0  0  0  0  0
   10.0520  -21.0840   48.4110 C   0  0  2  0  0  0  0  0  0  0  0  0
   10.6760  -21.4380   46.4480 H   0  0  0  0  0  0  0  0  0  0  0  0
   10.6330  -22.2670   48.9190 C   0  0  0  0  0  0  0  0  0  0  0  0
    9.3560  -20.2210   49.3010 C   0  0  0  0  0  0  0  0  0  0  0  0
   10.5290  -22.5780   50.2450 C   0  0  0  0  0  0  0  0  0  0  0  0
    9.8660  -21.7200   51.0880 C   0  0  0  0  0  0  0  0  0  0  0  0
    9.8190  -22.0280   52.4060 F   0  0  0  0  0  0  0  0  0  0  0  0
    9.2730  -20.5720   50.6720 C   0  0  0  0  0  0  0  0  0  0  0  0
    8.7740  -19.0460   48.7740 C   0  0  0  0  0  0  0  0  0  0  0  0
    9.6230  -19.4610   45.2900 N   0  0  0  0  0  0  0  0  0  0  0  0
   10.2680  -20.0040   44.7170 H   0  0  0  0  0  0  0  0  0  0  0  0
    9.0360  -18.7150   44.9150 H   0  0  0  0  0  0  0  0  0  0  0  0
    6.2900  -18.1530   45.6930 C   0  0  2  0  0  0  0  0  0  0  0  0
    5.7380  -19.4460   45.7380 C   0  0  0  0  0  0  0  0  0  0  0  0
    5.1720  -20.0180   44.6030 C   0  0  0  0  0  0  0  0  0  0  0  0
    5.1800  -19.3090   43.4140 C   0  0  0  0  0  0  0  0  0  0  0  0
    5.7200  -18.0220   43.4300 C   0  0  0  0  0  0  0  0  0  0  0  0
    6.2570  -17.4710   44.5390 N   0  0  0  0  0  0  0  0  0  0  0  0
    6.6400  -16.5260   44.4990 H   0  0  0  0  0  0  0  0  0  0  0  0
    5.8300  -20.2400   46.9220 N   0  0  0  0  0  0  0  0  0  0  0  0
    6.3920  -21.4680   47.0650 C   0  0  0  0  0  0  0  0  0  0  0  0
    6.1960  -21.8460   48.3590 C   0  0  0  0  0  0  0  0  0  0  0  0
    5.5050  -20.7860   48.9460 C   0  0  0  0  0  0  0  0  0  0  0  0
    5.2810  -19.7960   48.0890 N   0  0  0  0  0  0  0  0  0  0  0  0
    4.8080  -18.9090   48.2640 H   0  0  0  0  0  0  0  0  0  0  0  0
    5.6700  -17.2680   42.3600 O   0  0  0  0  0  0  0  0  0  0  0  0
    4.8530  -17.1570   41.8870 H   0  0  0  0  0  0  0  0  0  0  0  0
  2  1  1  6  0  0  0
  2  3  1  0  0  0  0
  3  4  1  0  0  0  0
  4  5  2  0  0  0  0
  4 15  1  0  0  0  0
  5 16  1  0  0  0  0
  5  6  1  0  0  0  0
  6  8  1  0  0  0  0
  6  7  1  0  0  0  0
  7  9  1  6  0  0  0
  7 10  1  0  0  0  0
  9 11  2  0  0  0  0
 10 15  2  0  0  0  0
 10 14  1  0  0  0  0
 11 12  1  0  0  0  0
 12 14  2  0  0  0  0
 12 13  1  0  0  0  0
 16 17  1  0  0  0  0
 16 18  1  0  0  0  0
 19  2  1  6  0  0  0
 19 24  1  0  0  0  0
 19 20  1  0  0  0  0
 20 21  2  0  0  0  0
 20 26  1  0  0  0  0
 21 22  1  0  0  0  0
 22 23  2  0  0  0  0
 23 32  1  0  0  0  0
 23 24  1  0  0  0  0
 24 25  1  0  0  0  0
 26 27  1  0  0  0  0
 26 30  1  0  0  0  0
 27 28  1  0  0  0  0
 28 29  2  0  0  0  0
 29 30  1  0  0  0  0
 30 31  1  0  0  0  0
 32 33  1  0  0  0  0
M  END
>  <MODEL>
1

>  <REMARK>
 VINA RESULT:    -7.653      0.000      0.000
 INTER + INTRA:         -11.480
 INTER:                  -9.890
 INTRA:                  -1.589
 UNBOUND:                -1.589
  6 active torsions:
  status: ('A' for Active; 'I' for Inactive)
    1  A    between atoms: C_1  and  N_19 
    2  A    between atoms: C_2  and  O_17 
    3  A    between atoms: O_5  and  C_9 
    4  A    between atoms: O_5  and  C_12 
    5  A    between atoms: C_12  and  C_13 
    6  A    between atoms: C_29  and  N_30 

>  <COMPND>
    /home/daniil/Downloads/ml_docking_review/databases/Vina/outputs/7JY3_VUD/7JY3_VUD.pdbqt 

>  <AUTHOR>
    GENERATED BY OPEN BABEL 3.2.1

>  <MASTER>
        0    0    0    0    0    0    0    0   33    0   33    0

$$$$
