../../databases/Vina/outputs/8DSC_NCA/8DSC_NCA1.pdb
 OpenBabel08242616453D

 12 12  0  0  0  0  0  0  0  0999 V2000
   13.4530   10.2290    7.5980 N   0  0  0  0  0  0  0  0  0  0  0  0
   12.6470   10.7520    7.9370 H   0  0  0  0  0  0  0  0  0  0  0  0
   13.7460   10.2370    6.2880 C   0  0  0  0  0  0  0  0  0  0  0  0
   14.8230    9.5210    5.7860 C   0  0  0  0  0  0  0  0  0  0  0  0
   15.6220    8.8130    6.6840 C   0  0  0  0  0  0  0  0  0  0  0  0
   15.2870    8.8130    8.0270 C   0  0  0  0  0  0  0  0  0  0  0  0
   14.2110    9.5420    8.4630 C   0  0  0  0  0  0  0  0  0  0  0  0
   15.0950    9.5490    4.3080 C   0  0  0  0  0  0  0  0  0  0  0  0
   14.3440   10.2450    3.6010 O   0  0  0  0  0  0  0  0  0  0  0  0
   16.0930    8.8430    3.8180 N   0  0  0  0  0  0  0  0  0  0  0  0
   16.7090    8.2730    4.3970 H   0  0  0  0  0  0  0  0  0  0  0  0
   16.2780    8.8610    2.8150 H   0  0  0  0  0  0  0  0  0  0  0  0
  1  3  1  0  0  0  0
  1  2  1  0  0  0  0
  1  7  1  0  0  0  0
  3  4  1  0  0  0  0
  4  8  1  0  0  0  0
  4  5  2  0  0  0  0
  5  6  1  0  0  0  0
  6  7  2  0  0  0  0
  8  9  2  0  0  0  0
  8 10  1  0  0  0  0
 10 12  1  0  0  0  0
 10 11  1  0  0  0  0
M  END
>  <MODEL>
1

>  <REMARK>
 VINA RESULT:    -6.659      0.000      0.000
 INTER + INTRA:          -7.078
 INTER:                  -7.048
 INTRA:                  -0.030
 UNBOUND:                -0.030
  1 active torsions:
  status: ('A' for Active; 'I' for Inactive)
    1  A    between atoms: C_4  and  C_8 
       I    between atoms: C_8  and  N_10 

>  <COMPND>
    /home/daniil/Downloads/ml_docking_review/databases/Vina/outputs/8DSC_NCA/8DSC_NCA.pdbqt 

>  <AUTHOR>
    GENERATED BY OPEN BABEL 3.2.1

>  <MASTER>
        0    0    0    0    0    0    0    0   12    0   12    0

$$$$
