../../databases/Vina/outputs/7VYJ_CA0/7VYJ_CA01.pdb
 OpenBabel08242616453D

 31 33  0  0  1  0  0  0  0  0999 V2000
   55.1230  -45.3620   26.2320 C   0  0  1  0  0  0  0  0  0  0  0  0
   55.0200  -45.5680   24.5770 C   0  0  1  0  0  0  0  0  0  0  0  0
   55.5040  -46.7370   24.3590 C   0  0  1  0  0  0  0  0  0  0  0  0
   56.5720  -46.9390   25.5020 C   0  0  2  0  0  0  0  0  0  0  0  0
   56.3090  -45.7740   26.4900 O   0  0  0  0  0  0  0  0  0  0  0  0
   54.9590  -43.9730   26.5570 N   0  0  2  0  0  0  0  0  0  0  0  0
   55.7770  -42.9680   26.1740 C   0  0  1  0  0  0  0  0  0  0  0  0
   56.8900  -42.9250   25.4220 N   0  0  0  0  0  0  0  0  0  0  0  0
   55.2630  -41.7900   26.7070 C   0  0  0  0  0  0  0  0  0  0  0  0
   57.5070  -41.7590   25.1850 C   0  0  0  0  0  0  0  0  0  0  0  0
   57.2670  -43.7870   25.0280 H   0  0  0  0  0  0  0  0  0  0  0  0
   57.0610  -40.6130   25.6960 N   0  0  0  0  0  0  0  0  0  0  0  0
   55.9520  -40.5860   26.4440 C   0  0  0  0  0  0  0  0  0  0  0  0
   57.5690  -39.7470   25.5150 H   0  0  0  0  0  0  0  0  0  0  0  0
   55.4600  -39.3280   26.9910 N   0  0  0  0  0  0  0  0  0  0  0  0
   54.1510  -42.1150   27.4000 N   0  0  0  0  0  0  0  0  0  0  0  0
   53.9920  -43.4380   27.3090 C   0  0  0  0  0  0  0  0  0  0  0  0
   53.5420  -41.4680   27.9010 H   0  0  0  0  0  0  0  0  0  0  0  0
   53.6260  -45.4120   24.1650 O   0  0  0  0  0  0  0  0  0  0  0  0
   53.4600  -45.6410   23.2590 H   0  0  0  0  0  0  0  0  0  0  0  0
   54.4710  -47.8040   24.5250 O   0  0  0  0  0  0  0  0  0  0  0  0
   53.9090  -47.6360   25.2720 H   0  0  0  0  0  0  0  0  0  0  0  0
   57.8830  -46.8850   25.0350 C   0  0  0  0  0  0  0  0  0  0  0  0
   58.6020  -47.8930   25.6990 O   0  0  0  0  0  0  0  0  0  0  0  0
   59.9440  -48.5440   24.9800 P   0  0  1  0  0  0  0  0  0  0  0  0
   60.5190  -47.5960   23.9720 O   0  0  0  0  0  0  0  0  0  0  0  0
   60.9690  -48.7460   26.0710 O   0  0  0  0  0  0  0  0  0  0  0  0
   59.4490  -49.9150   24.1790 O   0  0  0  0  0  0  0  0  0  0  0  0
   58.2320  -50.5810   24.3660 C   0  0  0  0  0  0  0  0  0  0  0  0
   58.0740  -51.4320   25.2180 O   0  0  0  0  0  0  0  0  0  0  0  0
   57.1640  -50.0930   23.5030 N   0  0  0  0  0  0  0  0  0  0  0  0
  1  2  1  0  0  0  0
  1  5  1  6  0  0  0
  1  6  1  0  0  0  0
  2 19  1  1  0  0  0
  2  3  1  0  0  0  0
  3 21  1  1  0  0  0
  3  4  1  0  0  0  0
  4 23  1  6  0  0  0
  4  5  1  0  0  0  0
  6  7  1  0  0  0  0
  6 17  1  1  0  0  0
  7  8  1  0  0  0  0
  7  9  1  6  0  0  0
  8 11  1  0  0  0  0
  8 10  1  0  0  0  0
  9 13  2  0  0  0  0
  9 16  1  0  0  0  0
 10 12  1  0  0  0  0
 12 14  1  0  0  0  0
 12 13  1  0  0  0  0
 13 15  1  0  0  0  0
 16 17  1  0  0  0  0
 16 18  1  0  0  0  0
 19 20  1  0  0  0  0
 21 22  1  0  0  0  0
 23 24  1  0  0  0  0
 24 25  1  0  0  0  0
 25 26  2  6  0  0  0
 25 28  1  0  0  0  0
 25 27  1  0  0  0  0
 28 29  1  0  0  0  0
 29 31  1  0  0  0  0
 29 30  2  0  0  0  0
M  END
>  <MODEL>
1

>  <REMARK>
 VINA RESULT:    -9.849      0.000      0.000
 INTER + INTRA:         -14.990
 INTER:                 -13.880
 INTRA:                  -1.110
 UNBOUND:                -1.110
  8 active torsions:
  status: ('A' for Active; 'I' for Inactive)
    1  A    between atoms: N_13  and  C_16 
    2  A    between atoms: P_14  and  O_27 
    3  A    between atoms: P_14  and  O_31 
    4  A    between atoms: C_15  and  O_27 
    5  A    between atoms: C_19  and  O_20 
    6  A    between atoms: C_24  and  O_25 
    7  A    between atoms: C_28  and  C_30 
    8  A    between atoms: C_30  and  O_31 

>  <COMPND>
    /home/daniil/Downloads/ml_docking_review/databases/Vina/outputs/7VYJ_CA0/7VYJ_CA0.pdbqt 

>  <AUTHOR>
    GENERATED BY OPEN BABEL 3.2.1

>  <MASTER>
        0    0    0    0    0    0    0    0   31    0   31    0

$$$$
