../../databases/Vina/outputs/7THI_PGA/7THI_PGA1.pdb
 OpenBabel08242611493D

  9  8  0  0  0  0  0  0  0  0999 V2000
   38.0670   35.4100  114.9700 O   0  0  0  0  0  0  0  0  0  0  0  0
   37.0170   34.8280  116.0480 P   0  0  0  0  0  0  0  0  0  0  0  0
   36.7620   33.3600  115.8290 O   0  0  0  0  0  0  0  0  0  0  0  0
   37.7470   35.0660  117.3350 O   0  0  0  0  0  0  0  0  0  0  0  0
   35.7220   35.6010  115.9290 O   0  0  0  0  0  0  0  0  0  0  0  0
   37.7400   36.2670  113.8810 C   0  0  0  0  0  0  0  0  0  0  0  0
   39.0220   36.9170  113.4140 C   0  0  0  0  0  0  0  0  0  0  0  0
   39.8900   36.2380  112.8510 O   0  0  0  0  0  0  0  0  0  0  0  0
   39.2290   38.1360  113.5400 O   0  0  0  0  0  0  0  0  0  0  0  0
  1  6  1  0  0  0  0
  1  2  1  0  0  0  0
  2  3  2  0  0  0  0
  2  5  1  0  0  0  0
  2  4  1  0  0  0  0
  6  7  1  0  0  0  0
  7  8  2  0  0  0  0
  7  9  1  0  0  0  0
M  END
>  <MODEL>
1

>  <REMARK>
 VINA RESULT:    -6.290      0.000      0.000
 INTER + INTRA:          -7.434
 INTER:                  -7.393
 INTRA:                  -0.041
 UNBOUND:                -0.041
  3 active torsions:
  status: ('A' for Active; 'I' for Inactive)
    1  A    between atoms: P_1  and  O_2 
    2  A    between atoms: O_2  and  C_6 
    3  A    between atoms: C_6  and  C_7 

>  <COMPND>
    /home/daniil/Downloads/ml_docking_review/databases/Vina/outputs/7THI_PGA/7THI_PGA.pdbqt 

>  <AUTHOR>
    GENERATED BY OPEN BABEL 3.2.1

>  <MASTER>
        0    0    0    0    0    0    0    0    9    0    9    0

$$$$
