../../databases/Vina/outputs/7OPG_06N/7OPG_06N1.pdb
 OpenBabel08242616453D

 23 25  0  0  1  0  0  0  0  0999 V2000
   55.3940    1.4850   55.2470 C   0  0  0  0  0  0  0  0  0  0  0  0
   55.2820    0.1800   54.8600 C   0  0  0  0  0  0  0  0  0  0  0  0
   55.2350   -0.6780   55.9320 N   0  0  0  0  0  0  0  0  0  0  0  0
   55.1550   -1.6950   55.9140 H   0  0  0  0  0  0  0  0  0  0  0  0
   55.3120    0.0970   56.9770 C   0  0  2  0  0  0  0  0  0  0  0  0
   55.3890    1.4110   56.6130 N   0  0  0  0  0  0  0  0  0  0  0  0
   55.3810   -0.0870   58.7100 S   0  0  0  0  0  0  0  0  0  0  0  0
   55.4430    1.6680   58.7010 C   0  0  1  0  0  0  0  0  0  0  0  0
   55.4370    2.3480   57.6010 N   0  0  0  0  0  0  0  0  0  0  0  0
   55.4610    3.3620   57.4970 H   0  0  0  0  0  0  0  0  0  0  0  0
   55.4280    2.3460   59.8520 N   0  0  0  0  0  0  0  0  0  0  0  0
   55.3950    1.8310   60.7320 H   0  0  0  0  0  0  0  0  0  0  0  0
   55.4710    2.7130   54.4500 C   0  0  0  0  0  0  0  0  0  0  0  0
   56.0620    3.8750   54.9400 C   0  0  0  0  0  0  0  0  0  0  0  0
   56.1140    5.0130   54.1660 C   0  0  0  0  0  0  0  0  0  0  0  0
   55.5780    5.0120   52.8980 C   0  0  0  0  0  0  0  0  0  0  0  0
   54.9970    3.8600   52.3990 C   0  0  0  0  0  0  0  0  0  0  0  0
   54.9370    2.7300   53.1770 C   0  0  0  0  0  0  0  0  0  0  0  0
   55.5880    6.1040   52.0930 O   0  0  0  0  0  0  0  0  0  0  0  0
   55.1940    6.1110   51.2280 H   0  0  0  0  0  0  0  0  0  0  0  0
   55.4560    3.7940   59.8840 C   0  0  0  0  0  0  0  0  0  0  0  0
   56.5460    4.2960   60.8040 C   0  0  0  0  0  0  0  0  0  0  0  0
   56.2150    4.0390   62.2580 C   0  0  0  0  0  0  0  0  0  0  0  0
  1 13  1  0  0  0  0
  1  2  2  0  0  0  0
  1  6  1  0  0  0  0
  2  3  1  0  0  0  0
  3  4  1  0  0  0  0
  3  5  1  0  0  0  0
  5  6  1  0  0  0  0
  5  7  1  6  0  0  0
  6  9  1  0  0  0  0
  7  8  1  0  0  0  0
  8  9  1  0  0  0  0
  8 11  1  1  0  0  0
  9 10  1  0  0  0  0
 11 21  1  0  0  0  0
 11 12  1  0  0  0  0
 13 18  2  0  0  0  0
 13 14  1  0  0  0  0
 14 15  2  0  0  0  0
 15 16  1  0  0  0  0
 16 19  1  0  0  0  0
 16 17  2  0  0  0  0
 17 18  1  0  0  0  0
 19 20  1  0  0  0  0
 21 22  1  0  0  0  0
 22 23  1  0  0  0  0
M  END
>  <MODEL>
1

>  <REMARK>
 VINA RESULT:    -8.959      0.000      0.000
 INTER + INTRA:         -10.862
 INTER:                 -10.792
 INTRA:                  -0.070
 UNBOUND:                -0.070
  4 active torsions:
  status: ('A' for Active; 'I' for Inactive)
    1  A    between atoms: C_1  and  C_3 
    2  A    between atoms: C_6  and  O_22 
    3  A    between atoms: N_17  and  C_19 
    4  A    between atoms: C_19  and  C_20 

>  <COMPND>
    /home/daniil/Downloads/ml_docking_review/databases/Vina/outputs/7OPG_06N/7OPG_06N.pdbqt 

>  <AUTHOR>
    GENERATED BY OPEN BABEL 3.2.1

>  <MASTER>
        0    0    0    0    0    0    0    0   23    0   23    0

$$$$
