../../databases/Vina/outputs/7P1M_4IU/7P1M_4IU1.pdb
 OpenBabel08242616453D

 27 29  0  0  1  0  0  0  0  0999 V2000
   44.2800   -8.3280  -27.7720 C   0  0  0  0  0  0  0  0  0  0  0  0
   44.0170   -8.6050  -26.4520 C   0  0  0  0  0  0  0  0  0  0  0  0
   42.7290   -8.8570  -26.0320 C   0  0  0  0  0  0  0  0  0  0  0  0
   41.6560   -8.7790  -26.8740 C   0  0  0  0  0  0  0  0  0  0  0  0
   40.3100   -8.9370  -26.7430 N   0  0  0  0  0  0  0  0  0  0  0  0
   39.8020   -9.1390  -25.8820 H   0  0  0  0  0  0  0  0  0  0  0  0
   43.2250   -8.2710  -28.7130 C   0  0  0  0  0  0  0  0  0  0  0  0
   41.9130   -8.4810  -28.2840 C   0  0  0  0  0  0  0  0  0  0  0  0
   40.7330   -8.4730  -28.8860 N   0  0  0  0  0  0  0  0  0  0  0  0
   40.6060   -8.2390  -30.3330 C   0  0  0  0  0  0  0  0  0  0  0  0
   39.7680   -8.7700  -27.9950 C   0  0  2  0  0  0  0  0  0  0  0  0
   38.3280   -8.8720  -28.3420 C   0  0  0  0  0  0  0  0  0  0  0  0
   37.5820   -7.7770  -27.8580 O   0  0  0  0  0  0  0  0  0  0  0  0
   36.1980   -8.1650  -27.7440 C   0  0  2  0  0  0  0  0  0  0  0  0
   35.6450   -8.3310  -29.1330 C   0  0  0  0  0  0  0  0  0  0  0  0
   34.4330   -7.9850  -29.4570 C   0  0  0  0  0  0  0  0  0  0  0  0
   33.5260   -7.3840  -28.5050 O   0  0  0  0  0  0  0  0  0  0  0  0
   33.9710   -7.2930  -27.1010 C   0  0  1  0  0  0  0  0  0  0  0  0
   35.4960   -7.0480  -27.0570 C   0  0  2  0  0  0  0  0  0  0  0  0
   33.2060   -6.2170  -26.3760 C   0  0  0  0  0  0  0  0  0  0  0  0
   33.5060   -4.9720  -27.0540 O   0  0  0  0  0  0  0  0  0  0  0  0
   33.5800   -4.3090  -26.3790 H   0  0  0  0  0  0  0  0  0  0  0  0
   35.9940   -5.8550  -27.7300 O   0  0  0  0  0  0  0  0  0  0  0  0
   36.9130   -5.6450  -27.6130 H   0  0  0  0  0  0  0  0  0  0  0  0
   45.6890   -8.0480  -28.1650 C   0  0  0  0  0  0  0  0  0  0  0  0
   46.6110   -8.7570  -27.5130 O   0  0  0  0  0  0  0  0  0  0  0  0
   45.9960   -7.2930  -29.0810 O   0  0  0  0  0  0  0  0  0  0  0  0
  1  7  2  0  0  0  0
  1 25  1  0  0  0  0
  1  2  1  0  0  0  0
  2  3  2  0  0  0  0
  3  4  1  0  0  0  0
  4  8  2  0  0  0  0
  4  5  1  0  0  0  0
  5 11  1  0  0  0  0
  5  6  1  0  0  0  0
  7  8  1  0  0  0  0
  8  9  1  0  0  0  0
  9 10  1  0  0  0  0
  9 11  1  0  0  0  0
 11 12  1  1  0  0  0
 12 13  1  0  0  0  0
 14 13  1  6  0  0  0
 14 15  1  0  0  0  0
 14 19  1  0  0  0  0
 15 16  2  0  0  0  0
 16 17  1  0  0  0  0
 17 18  1  0  0  0  0
 18 19  1  0  0  0  0
 18 20  1  6  0  0  0
 19 23  1  6  0  0  0
 20 21  1  0  0  0  0
 21 22  1  0  0  0  0
 23 24  1  0  0  0  0
 25 27  2  0  0  0  0
 25 26  1  0  0  0  0
M  END
>  <MODEL>
1

>  <REMARK>
 VINA RESULT:    -6.773      0.000      0.000
 INTER + INTRA:          -9.788
 INTER:                  -9.148
 INTRA:                  -0.640
 UNBOUND:                -0.640
  7 active torsions:
  status: ('A' for Active; 'I' for Inactive)
    1  A    between atoms: C_2  and  C_4 
    2  A    between atoms: C_14  and  C_15 
    3  A    between atoms: C_15  and  O_16 
    4  A    between atoms: O_16  and  C_17 
    5  A    between atoms: C_21  and  C_25 
    6  A    between atoms: C_22  and  O_23 
    7  A    between atoms: C_25  and  O_26 

>  <COMPND>
    /home/daniil/Downloads/ml_docking_review/databases/Vina/outputs/7P1M_4IU/7P1M_4IU.pdbqt 

>  <AUTHOR>
    GENERATED BY OPEN BABEL 3.2.1

>  <MASTER>
        0    0    0    0    0    0    0    0   27    0   27    0

$$$$
