../../databases/Vina/outputs/7B94_ANP/7B94_ANP1.pdb
 OpenBabel08242616453D

 39 41  0  0  1  0  0  0  0  0999 V2000
  -30.0930   -4.6610   16.9870 C   0  0  1  0  0  0  0  0  0  0  0  0
  -30.6050   -4.9810   18.2960 O   0  0  0  0  0  0  0  0  0  0  0  0
  -31.2860   -4.8840   16.0710 C   0  0  2  0  0  0  0  0  0  0  0  0
  -31.9160   -6.1390   16.6720 C   0  0  2  0  0  0  0  0  0  0  0  0
  -31.6040   -5.9790   18.1650 C   0  0  2  0  0  0  0  0  0  0  0  0
  -29.5740   -3.2520   16.9850 C   0  0  0  0  0  0  0  0  0  0  0  0
  -28.7520   -3.1300   15.8110 O   0  0  0  0  0  0  0  0  0  0  0  0
  -28.9370   -1.9580   14.7990 P   0  0  1  0  0  0  0  0  0  0  0  0
  -30.1200   -2.2090   13.9600 O   0  0  0  0  0  0  0  0  0  0  0  0
  -28.9610   -0.6410   15.5770 O   0  0  0  0  0  0  0  0  0  0  0  0
  -27.6180   -1.9490   13.9060 O   0  0  0  0  0  0  0  0  0  0  0  0
  -26.8350   -3.1830   13.2850 P   0  0  2  0  0  0  0  0  0  0  0  0
  -26.0180   -3.8200   14.3020 O   0  0  0  0  0  0  0  0  0  0  0  0
  -25.9090   -2.5370   12.1820 O   0  0  0  0  0  0  0  0  0  0  0  0
  -27.9810   -4.2300   12.7100 N   0  0  0  0  0  0  0  0  0  0  0  0
  -28.8350   -4.2850   13.2650 H   0  0  0  0  0  0  0  0  0  0  0  0
  -27.9510   -5.2100   11.3570 P   0  0  0  0  0  0  0  0  0  0  0  0
  -29.3690   -5.2170   10.6610 O   0  0  0  0  0  0  0  0  0  0  0  0
  -27.5840   -6.6570   11.8460 O   0  0  0  0  0  0  0  0  0  0  0  0
  -26.9750   -4.8460   10.3400 O   0  0  0  0  0  0  0  0  0  0  0  0
  -30.8580   -5.0520   14.7270 O   0  0  0  0  0  0  0  0  0  0  0  0
  -31.6000   -5.2270   14.1610 H   0  0  0  0  0  0  0  0  0  0  0  0
  -32.7570   -5.6180   18.9820 N   0  0  2  0  0  0  0  0  0  0  0  0
  -33.0460   -4.3660   19.4720 C   0  0  2  0  0  0  0  0  0  0  0  0
  -32.3440   -3.2280   19.2910 N   0  0  0  0  0  0  0  0  0  0  0  0
  -34.2130   -4.5090   20.2030 C   0  0  0  0  0  0  0  0  0  0  0  0
  -32.9240   -2.1950   19.9190 C   0  0  0  0  0  0  0  0  0  0  0  0
  -31.4830   -3.1620   18.7460 H   0  0  0  0  0  0  0  0  0  0  0  0
  -34.0510   -2.1860   20.6470 N   0  0  0  0  0  0  0  0  0  0  0  0
  -34.7230   -3.3490   20.8250 C   0  0  0  0  0  0  0  0  0  0  0  0
  -34.3960   -1.3190   21.0590 H   0  0  0  0  0  0  0  0  0  0  0  0
  -34.6550   -5.8250   20.1720 N   0  0  0  0  0  0  0  0  0  0  0  0
  -33.7580   -6.4360   19.4360 C   0  0  0  0  0  0  0  0  0  0  0  0
  -35.4820   -6.2230   20.6170 H   0  0  0  0  0  0  0  0  0  0  0  0
  -35.7900   -3.3510   21.6210 N   0  0  0  0  0  0  0  0  0  0  0  0
  -35.9200   -2.6930   22.3890 H   0  0  0  0  0  0  0  0  0  0  0  0
  -36.5410   -4.0140   21.4270 H   0  0  0  0  0  0  0  0  0  0  0  0
  -31.2610   -7.2960   16.1820 O   0  0  0  0  0  0  0  0  0  0  0  0
  -31.0390   -7.8600   16.9130 H   0  0  0  0  0  0  0  0  0  0  0  0
  1  3  1  0  0  0  0
  1  6  1  1  0  0  0
  1  2  1  0  0  0  0
  3 21  1  6  0  0  0
  3  4  1  0  0  0  0
  4 38  1  6  0  0  0
  4  5  1  0  0  0  0
  5  2  1  6  0  0  0
  5 23  1  0  0  0  0
  6  7  1  0  0  0  0
  7  8  1  0  0  0  0
  8 11  1  0  0  0  0
  8  9  2  6  0  0  0
  8 10  1  0  0  0  0
 11 12  1  0  0  0  0
 12 14  2  6  0  0  0
 12 15  1  0  0  0  0
 12 13  1  0  0  0  0
 15 17  1  0  0  0  0
 15 16  1  0  0  0  0
 17 20  2  0  0  0  0
 17 18  1  0  0  0  0
 17 19  1  0  0  0  0
 21 22  1  0  0  0  0
 23 33  1  1  0  0  0
 23 24  1  0  0  0  0
 24 25  1  0  0  0  0
 24 26  1  1  0  0  0
 25 28  1  0  0  0  0
 25 27  1  0  0  0  0
 26 32  1  0  0  0  0
 26 30  2  0  0  0  0
 27 29  1  0  0  0  0
 29 30  1  0  0  0  0
 29 31  1  0  0  0  0
 30 35  1  0  0  0  0
 32 33  1  0  0  0  0
 32 34  1  0  0  0  0
 35 37  1  0  0  0  0
 35 36  1  0  0  0  0
 38 39  1  0  0  0  0
M  END
>  <MODEL>
1

>  <REMARK>
 VINA RESULT:    -9.409      0.000      0.000
 INTER + INTRA:         -16.495
 INTER:                 -14.634
 INTRA:                  -1.860
 UNBOUND:                -1.860
  11 active torsions:
  status: ('A' for Active; 'I' for Inactive)
    1  A    between atoms: P_1  and  N_8 
    2  A    between atoms: P_5  and  N_8 
    3  A    between atoms: P_5  and  O_13 
    4  A    between atoms: P_10  and  O_14 
    5  A    between atoms: P_10  and  O_13 
    6  A    between atoms: O_14  and  C_15 
    7  A    between atoms: C_15  and  C_16 
    8  A    between atoms: C_18  and  O_19 
    9  A    between atoms: C_21  and  O_22 
   10  A    between atoms: C_24  and  N_25 
   11  A    between atoms: C_30  and  N_31 

>  <COMPND>
    /home/daniil/Downloads/ml_docking_review/databases/Vina/outputs/7B94_ANP/7B94_ANP.pdbqt 

>  <AUTHOR>
    GENERATED BY OPEN BABEL 3.2.1

>  <MASTER>
        0    0    0    0    0    0    0    0   39    0   39    0

$$$$
