../../databases/Vina/outputs/7DIN_MPO/7DIN_MPO1.pdb
 OpenBabel08242616453D

 13 13  0  0  0  0  0  0  0  0999 V2000
   28.3740   -1.0310  -11.1990 C   0  0  0  0  0  0  0  0  0  0  0  0
   27.5770   -2.3070  -11.1110 C   0  0  0  0  0  0  0  0  0  0  0  0
   26.7190   -2.4480  -12.3370 C   0  0  0  0  0  0  0  0  0  0  0  0
   27.1310   -3.8820  -13.2760 S   0  0  0  0  0  0  0  0  0  0  0  0
   27.7960   -4.7920  -12.3790 O   0  0  0  0  0  0  0  0  0  0  0  0
   25.8630   -4.4290  -13.7270 O   0  0  0  0  0  0  0  0  0  0  0  0
   27.9420   -3.4290  -14.3810 O   0  0  0  0  0  0  0  0  0  0  0  0
   29.8200   -1.2820  -11.2210 N   0  0  0  0  0  0  0  0  0  0  0  0
   30.3080   -1.4460  -12.5950 C   0  0  0  0  0  0  0  0  0  0  0  0
   31.7910   -1.7150  -12.5800 C   0  0  0  0  0  0  0  0  0  0  0  0
   32.0950   -2.8950  -11.8420 O   0  0  0  0  0  0  0  0  0  0  0  0
   31.6500   -2.7320  -10.4940 C   0  0  0  0  0  0  0  0  0  0  0  0
   30.1630   -2.4680  -10.4280 C   0  0  0  0  0  0  0  0  0  0  0  0
  1  8  1  0  0  0  0
  1  2  1  0  0  0  0
  2  3  1  0  0  0  0
  3  4  1  0  0  0  0
  4  7  1  0  0  0  0
  4  6  1  0  0  0  0
  4  5  1  0  0  0  0
  8  9  1  0  0  0  0
  8 13  1  0  0  0  0
  9 10  1  0  0  0  0
 10 11  1  0  0  0  0
 11 12  1  0  0  0  0
 12 13  1  0  0  0  0
M  END
>  <MODEL>
1

>  <REMARK>
 VINA RESULT:    -4.340      0.000      0.000
 INTER + INTRA:          -5.708
 INTER:                  -5.355
 INTRA:                  -0.353
 UNBOUND:                -0.353
  4 active torsions:
  status: ('A' for Active; 'I' for Inactive)
    1  A    between atoms: S_1  and  C_6 
    2  A    between atoms: N_5  and  C_9 
    3  A    between atoms: C_6  and  C_8 
    4  A    between atoms: C_8  and  C_9 

>  <COMPND>
    /home/daniil/Downloads/ml_docking_review/databases/Vina/outputs/7DIN_MPO/7DIN_MPO.pdbqt 

>  <AUTHOR>
    GENERATED BY OPEN BABEL 3.2.1

>  <MASTER>
        0    0    0    0    0    0    0    0   13    0   13    0

$$$$
