../../databases/Vina/outputs/7XEK_9YX/7XEK_9YX1.pdb
 OpenBabel08242616453D

 26 27  0  0  1  0  0  0  0  0999 V2000
   33.2770  -32.3910  -36.3690 C   0  0  0  0  0  0  0  0  0  0  0  0
   32.6630  -31.6660  -35.3860 C   0  0  0  0  0  0  0  0  0  0  0  0
   33.3260  -31.3010  -34.2310 N   0  0  0  0  0  0  0  0  0  0  0  0
   32.8270  -30.7300  -33.5480 H   0  0  0  0  0  0  0  0  0  0  0  0
   34.6060  -31.6610  -33.9540 C   0  0  0  0  0  0  0  0  0  0  0  0
   35.1730  -31.2800  -32.6530 C   0  0  0  0  0  0  0  0  0  0  0  0
   35.2370  -32.4530  -34.9120 C   0  0  0  0  0  0  0  0  0  0  0  0
   34.6190  -32.8060  -36.1570 C   0  0  0  0  0  0  0  0  0  0  0  0
   35.2700  -33.4570  -37.2400 C   0  0  2  0  0  0  0  0  0  0  0  0
   35.7030  -35.2170  -37.3340 S   0  0  0  0  0  0  0  0  0  0  0  0
   37.0010  -35.1090  -38.6090 C   0  0  0  0  0  0  0  0  0  0  0  0
   37.4830  -33.5200  -38.4880 C   0  0  1  0  0  0  0  0  0  0  0  0
   36.6260  -32.8060  -37.4910 N   0  0  0  0  0  4  0  0  0  0  0  0
   36.5070  -31.8300  -37.7610 H   0  0  0  0  0  0  0  0  0  0  0  0
   37.1300  -32.6850  -36.6120 H   0  0  0  0  0  0  0  0  0  0  0  0
   38.9730  -33.3310  -38.0600 C   0  0  0  0  0  0  0  0  0  0  0  0
   39.2490  -33.0360  -36.8810 O   0  0  0  0  0  0  0  0  0  0  0  0
   39.8700  -33.5150  -38.8970 O   0  0  0  0  0  0  0  0  0  0  0  0
   32.5170  -32.7070  -37.6150 C   0  0  0  0  0  0  0  0  0  0  0  0
   31.7760  -33.9540  -37.2070 O   0  0  0  0  0  0  0  0  0  0  0  0
   31.4500  -35.0690  -38.4400 P   0  0  0  0  0  0  0  0  0  0  0  0
   29.9440  -35.3340  -38.3410 O   0  0  0  0  0  0  0  0  0  0  0  0
   31.9570  -34.3570  -39.6870 O   0  0  0  0  0  0  0  0  0  0  0  0
   32.1740  -36.3280  -38.0010 O   0  0  0  0  0  0  0  0  0  0  0  0
   36.4700  -32.8750  -34.6830 O   0  0  0  0  0  0  0  0  0  0  0  0
   37.0010  -32.4180  -34.0430 H   0  0  0  0  0  0  0  0  0  0  0  0
  1 19  1  0  0  0  0
  1  8  2  0  0  0  0
  1  2  1  0  0  0  0
  2  3  1  0  0  0  0
  3  5  1  0  0  0  0
  3  4  1  0  0  0  0
  5  7  2  0  0  0  0
  5  6  1  0  0  0  0
  7  8  1  0  0  0  0
  7 25  1  0  0  0  0
  9  8  1  1  0  0  0
  9 13  1  0  0  0  0
  9 10  1  0  0  0  0
 10 11  1  0  0  0  0
 11 12  1  0  0  0  0
 12 16  1  1  0  0  0
 12 13  1  0  0  0  0
 13 14  1  0  0  0  0
 13 15  1  0  0  0  0
 16 18  2  0  0  0  0
 16 17  1  0  0  0  0
 19 20  1  0  0  0  0
 20 21  1  0  0  0  0
 21 23  2  0  0  0  0
 21 22  1  0  0  0  0
 21 24  1  0  0  0  0
 25 26  1  0  0  0  0
M  END
>  <MODEL>
1

>  <REMARK>
 VINA RESULT:    -7.640      0.000      0.000
 INTER + INTRA:         -11.074
 INTER:                 -10.097
 INTRA:                  -0.977
 UNBOUND:                -0.977
  6 active torsions:
  status: ('A' for Active; 'I' for Inactive)
    1  A    between atoms: P_2  and  O_5 
    2  A    between atoms: O_5  and  C_6 
    3  A    between atoms: C_6  and  C_7 
    4  A    between atoms: C_13  and  O_14 
    5  A    between atoms: C_16  and  C_17 
    6  A    between atoms: C_23  and  C_24 

>  <COMPND>
    /home/daniil/Downloads/ml_docking_review/databases/Vina/outputs/7XEK_9YX/7XEK_9YX.pdbqt 

>  <AUTHOR>
    GENERATED BY OPEN BABEL 3.2.1

>  <MASTER>
        0    0    0    0    0    0    0    0   26    0   26    0

$$$$
