../../databases/Vina/outputs/8AIE_M7L/8AIE_M7L1.pdb
 OpenBabel08242616453D

 28 28  0  0  0  0  0  0  0  0999 V2000
   17.2130    6.8260   23.1120 C   0  0  0  0  0  0  0  0  0  0  0  0
   16.1840    5.2060   21.8390 C   0  0  0  0  0  0  0  0  0  0  0  0
   17.8020    5.8980   23.9590 C   0  0  0  0  0  0  0  0  0  0  0  0
   17.5610    4.5340   23.7310 C   0  0  0  0  0  0  0  0  0  0  0  0
   16.7440    4.2050   22.6360 C   0  0  0  0  0  0  0  0  0  0  0  0
   15.2760    4.8870   20.6890 C   0  0  0  0  0  0  0  0  0  0  0  0
   16.4580    6.4860   22.0650 N   0  0  0  0  0  0  0  0  0  0  0  0
   16.0930    7.2050   21.4410 H   0  0  0  0  0  0  0  0  0  0  0  0
   18.2030    3.4640   24.6080 C   0  0  0  0  0  0  0  0  0  0  0  0
   18.9730    2.3320   24.0230 N   0  0  0  0  0  4  0  0  0  0  0  0
   19.6370    2.5740   23.2860 H   0  0  0  0  0  0  0  0  0  0  0  0
   18.8950    0.9720   24.3650 C   0  0  0  0  0  0  0  0  0  0  0  0
   19.9880    0.4970   25.3060 C   0  0  0  0  0  0  0  0  0  0  0  0
   20.8510    1.5680   25.7500 O   0  0  0  0  0  0  0  0  0  0  0  0
   22.1810    1.4660   25.1500 N   0  0  0  0  0  0  0  0  0  0  0  0
   22.6420    0.5780   24.9510 H   0  0  0  0  0  0  0  0  0  0  0  0
   22.5770    2.3880   24.9610 H   0  0  0  0  0  0  0  0  0  0  0  0
   17.9260   -0.0330   23.9910 C   0  0  0  0  0  0  0  0  0  0  0  0
   18.2900   -1.1280   24.4470 O   0  0  0  0  0  0  0  0  0  0  0  0
   16.7970    0.0290   23.3170 O   0  0  0  0  0  0  0  0  0  0  0  0
   16.4840    2.9060   22.3140 O   0  0  0  0  0  0  0  0  0  0  0  0
   15.6070    2.5480   22.3840 H   0  0  0  0  0  0  0  0  0  0  0  0
   18.6450    6.3610   25.1050 C   0  0  0  0  0  0  0  0  0  0  0  0
   17.8710    6.2940   26.3390 O   0  0  0  0  0  0  0  0  0  0  0  0
   18.6460    5.9860   27.6960 P   0  0  0  0  0  0  0  0  0  0  0  0
   19.5140    7.2380   27.8390 O   0  0  0  0  0  0  0  0  0  0  0  0
   19.4370    4.7500   27.4290 O   0  0  0  0  0  0  0  0  0  0  0  0
   17.6010    5.8890   28.8110 O   0  0  0  0  0  0  0  0  0  0  0  0
  1  7  1  0  0  0  0
  1  3  1  0  0  0  0
  2  6  1  0  0  0  0
  2  7  1  0  0  0  0
  2  5  2  0  0  0  0
  3  4  2  0  0  0  0
  3 23  1  0  0  0  0
  4  5  1  0  0  0  0
  4  9  1  0  0  0  0
  5 21  1  0  0  0  0
  7  8  1  0  0  0  0
  9 10  1  0  0  0  0
 10 11  1  0  0  0  0
 10 12  2  0  0  0  0
 12 18  1  0  0  0  0
 12 13  1  0  0  0  0
 13 14  1  0  0  0  0
 14 15  1  0  0  0  0
 15 16  1  0  0  0  0
 15 17  1  0  0  0  0
 18 20  2  0  0  0  0
 18 19  1  0  0  0  0
 21 22  1  0  0  0  0
 23 24  1  0  0  0  0
 24 25  1  0  0  0  0
 25 27  2  0  0  0  0
 25 26  1  0  0  0  0
 25 28  1  0  0  0  0
M  END
>  <MODEL>
1

>  <REMARK>
 VINA RESULT:    -9.031      0.000      0.000
 INTER + INTRA:         -15.511
 INTER:                 -14.311
 INTRA:                  -1.200
 UNBOUND:                -1.200
  11 active torsions:
  status: ('A' for Active; 'I' for Inactive)
    1  A    between atoms: C_3  and  C_12 
    2  A    between atoms: C_4  and  C_5 
    3  A    between atoms: C_4  and  N_18 
    4  A    between atoms: C_6  and  O_10 
    5  A    between atoms: C_12  and  O_13 
    6  A    between atoms: O_13  and  P_14 
    7  A    between atoms: N_18  and  C_20 
    8  A    between atoms: C_20  and  C_22 
    9  A    between atoms: C_20  and  C_21 
   10  A    between atoms: C_22  and  O_25 
   11  A    between atoms: O_25  and  N_26 

>  <COMPND>
    /home/daniil/Downloads/ml_docking_review/databases/Vina/outputs/8AIE_M7L/8AIE_M7L.pdbqt 

>  <AUTHOR>
    GENERATED BY OPEN BABEL 3.2.1

>  <MASTER>
        0    0    0    0    0    0    0    0   28    0   28    0

$$$$
