../../databases/Vina/outputs/7Z7F_IF3/7Z7F_IF31.pdb
 OpenBabel08242616453D

 19 20  0  0  1  0  0  0  0  0999 V2000
   17.1750   26.6380    3.4130 C   0  0  1  0  0  0  0  0  0  0  0  0
   15.8020   26.9920    3.1870 C   0  0  0  0  0  0  0  0  0  0  0  0
   15.4000   28.2570    3.5490 C   0  0  0  0  0  0  0  0  0  0  0  0
   17.5580   28.7420    4.3040 C   0  0  2  0  0  0  0  0  0  0  0  0
   13.6660   27.2090    2.7130 C   0  0  0  0  0  0  0  0  0  0  0  0
   13.2760   29.5620    3.5170 C   0  0  0  0  0  0  0  0  0  0  0  0
   16.2960   29.1070    4.1070 N   0  0  0  0  0  0  0  0  0  0  0  0
   15.9970   30.0420    4.3790 H   0  0  0  0  0  0  0  0  0  0  0  0
   17.9930   27.5300    3.9530 N   0  0  0  0  0  0  0  0  0  0  0  0
   18.9720   27.2860    4.1020 H   0  0  0  0  0  0  0  0  0  0  0  0
   14.0800   28.3680    3.2590 N   0  0  0  0  0  0  0  0  0  0  0  0
   14.7050   26.3540    2.6640 N   0  0  0  0  0  0  0  0  0  0  0  0
   14.6810   25.4010    2.3020 H   0  0  0  0  0  0  0  0  0  0  0  0
   17.6690   25.3190    3.0660 N   0  0  0  0  0  0  0  0  0  0  0  0
   17.8510   24.2860    4.0850 C   0  0  0  0  0  0  0  0  0  0  0  0
   17.8940   25.1080    2.0930 H   0  0  0  0  0  0  0  0  0  0  0  0
   18.4870   29.6690    4.9220 N   0  0  0  0  0  0  0  0  0  0  0  0
   18.1840   30.2570    6.2190 C   0  0  0  0  0  0  0  0  0  0  0  0
   19.3570   29.9090    4.4460 H   0  0  0  0  0  0  0  0  0  0  0  0
  1 14  1  1  0  0  0
  1  2  1  0  0  0  0
  1  9  1  0  0  0  0
  2 12  1  0  0  0  0
  2  3  2  0  0  0  0
  3 11  1  0  0  0  0
  3  7  1  0  0  0  0
  4  9  1  0  0  0  0
  4  7  1  0  0  0  0
  4 17  1  1  0  0  0
  5 12  1  0  0  0  0
  5 11  1  0  0  0  0
  6 11  1  0  0  0  0
  7  8  1  0  0  0  0
  9 10  1  0  0  0  0
 12 13  1  0  0  0  0
 14 16  1  0  0  0  0
 14 15  1  0  0  0  0
 17 19  1  0  0  0  0
 17 18  1  0  0  0  0
M  END
>  <MODEL>
1

>  <REMARK>
 VINA RESULT:    -6.090      0.000      0.000
 INTER + INTRA:          -6.899
 INTER:                  -6.802
 INTRA:                  -0.097
 UNBOUND:                -0.097
  2 active torsions:
  status: ('A' for Active; 'I' for Inactive)
    1  A    between atoms: C_3  and  N_9 
    2  A    between atoms: C_6  and  N_15 

>  <COMPND>
    /home/daniil/Downloads/ml_docking_review/databases/Vina/outputs/7Z7F_IF3/7Z7F_IF3.pdbqt 

>  <AUTHOR>
    GENERATED BY OPEN BABEL 3.2.1

>  <MASTER>
        0    0    0    0    0    0    0    0   19    0   19    0

$$$$
