../../databases/Vina/outputs/6Z0R_Q4H/6Z0R_Q4H1.pdb
 OpenBabel08242612033D

 11 11  0  0  0  0  0  0  0  0999 V2000
   35.4350   14.7880   58.2260 N   0  0  0  0  0  0  0  0  0  0  0  0
   35.1630   14.4730   57.1730 C   0  0  0  0  0  0  0  0  0  0  0  0
   34.8060   14.0640   55.7670 C   0  0  0  0  0  0  0  0  0  0  0  0
   34.4600   15.0440   54.8540 C   0  0  0  0  0  0  0  0  0  0  0  0
   34.1350   14.6860   53.6080 N   0  0  0  0  0  0  0  0  0  0  0  0
   33.8770   15.4070   52.9340 H   0  0  0  0  0  0  0  0  0  0  0  0
   34.1390   13.4050   53.2230 C   0  0  0  0  0  0  0  0  0  0  0  0
   34.4670   12.4410   54.0950 N   0  0  0  0  0  0  0  0  0  0  0  0
   34.4590   11.4670   53.7920 H   0  0  0  0  0  0  0  0  0  0  0  0
   34.8060   12.7310   55.3570 C   0  0  0  0  0  0  0  0  0  0  0  0
   35.1600   11.6750   56.2300 N   0  0  0  0  0  0  0  0  0  0  0  0
  1  2  3  0  0  0  0
  2  3  1  0  0  0  0
  3  4  1  0  0  0  0
  3 10  2  0  0  0  0
  4  5  1  0  0  0  0
  5  6  1  0  0  0  0
  5  7  1  0  0  0  0
  7  8  1  0  0  0  0
  8  9  1  0  0  0  0
  8 10  1  0  0  0  0
 10 11  1  0  0  0  0
M  END
>  <MODEL>
1

>  <REMARK>
 VINA RESULT:    -4.235      0.000      0.000
 INTER + INTRA:          -4.235
 INTER:                  -4.235
 INTRA:                   0.000
 UNBOUND:                 0.000
  0 active torsions:
  status: ('A' for Active; 'I' for Inactive)

>  <COMPND>
    /home/daniil/Downloads/ml_docking_review/databases/Vina/outputs/6Z0R_Q4H/6Z0R_Q4H.pdbqt 

>  <AUTHOR>
    GENERATED BY OPEN BABEL 3.2.1

>  <MASTER>
        0    0    0    0    0    0    0    0   11    0   11    0

$$$$
