../../databases/Vina/outputs/7ROR_69X/7ROR_69X1.pdb
 OpenBabel08242616453D

 46 49  0  0  1  0  0  0  0  0999 V2000
   10.9060   -2.1060   56.1080 C   0  0  2  0  0  0  0  0  0  0  0  0
   11.4290   -3.9810   57.4260 C   0  0  1  0  0  0  0  0  0  0  0  0
   10.6860   -4.5090   56.1830 C   0  0  1  0  0  0  0  0  0  0  0  0
   10.9680   -3.4110   55.1700 C   0  0  2  0  0  0  0  0  0  0  0  0
   11.1980   -2.6110   57.4420 O   0  0  0  0  0  0  0  0  0  0  0  0
    9.5180   -1.4770   56.1460 C   0  0  0  0  0  0  0  0  0  0  0  0
    8.7300   -2.0660   55.1960 O   0  0  0  0  0  0  0  0  0  0  0  0
    7.1930   -2.6390   55.8360 P   0  0  1  0  0  0  0  0  0  0  0  0
    7.2330   -4.0850   55.5820 O   0  0  0  0  0  0  0  0  0  0  0  0
    7.0080   -1.9230   57.1140 O   0  0  0  0  0  0  0  0  0  0  0  0
    6.1710   -1.8800   54.6740 O   0  0  0  0  0  0  0  0  0  0  0  0
    5.7330   -2.4940   53.5870 C   0  0  0  0  0  0  0  0  0  0  0  0
    4.6670   -2.9870   53.5730 O   0  0  0  0  0  0  0  0  0  0  0  0
    6.7170   -2.4030   52.4250 C   0  0  1  0  0  0  0  0  0  0  0  0
    6.2220   -3.1760   51.2490 N   0  0  0  0  0  4  0  0  0  0  0  0
    6.6300   -4.1100   51.2120 H   0  0  0  0  0  0  0  0  0  0  0  0
    5.2420   -3.4400   51.3570 H   0  0  0  0  0  0  0  0  0  0  0  0
    6.3810   -2.6610   50.3840 H   0  0  0  0  0  0  0  0  0  0  0  0
    6.9170   -0.8870   52.1200 C   0  0  0  0  0  0  0  0  0  0  0  0
    7.5480   -0.6230   50.8140 C   0  0  0  0  0  0  0  0  0  0  0  0
    8.9150   -0.9420   50.5550 C   0  0  0  0  0  0  0  0  0  0  0  0
    9.5580   -0.7010   49.3510 C   0  0  0  0  0  0  0  0  0  0  0  0
    8.8270   -0.0370   48.2880 C   0  0  0  0  0  0  0  0  0  0  0  0
    7.4630    0.2970   48.5160 C   0  0  0  0  0  0  0  0  0  0  0  0
    6.8450    0.0130   49.7440 C   0  0  0  0  0  0  0  0  0  0  0  0
    9.4300    0.2110   47.0950 O   0  0  0  0  0  0  0  0  0  0  0  0
    8.9810    0.0140   46.2820 H   0  0  0  0  0  0  0  0  0  0  0  0
   12.2590   -3.4490   54.6040 O   0  0  0  0  0  0  0  0  0  0  0  0
   12.8670   -4.0340   55.0410 H   0  0  0  0  0  0  0  0  0  0  0  0
   11.1770   -5.8260   55.7750 O   0  0  0  0  0  0  0  0  0  0  0  0
   11.5130   -6.3480   56.4940 H   0  0  0  0  0  0  0  0  0  0  0  0
   10.9500   -4.6220   58.5860 N   0  0  1  0  0  0  0  0  0  0  0  0
   11.6840   -5.4520   59.4640 C   0  0  2  0  0  0  0  0  0  0  0  0
   13.0570   -5.8250   59.3290 N   0  0  0  0  0  0  0  0  0  0  0  0
   10.8340   -5.8820   60.4990 C   0  0  0  0  0  0  0  0  0  0  0  0
   13.4780   -6.6680   60.3020 C   0  0  0  0  0  0  0  0  0  0  0  0
   13.6580   -5.4900   58.5770 H   0  0  0  0  0  0  0  0  0  0  0  0
   12.7250   -7.1510   61.3470 N   0  0  0  0  0  0  0  0  0  0  0  0
   11.3780   -6.7710   61.4860 C   0  0  0  0  0  0  0  0  0  0  0  0
   13.1460   -7.7870   62.0240 H   0  0  0  0  0  0  0  0  0  0  0  0
    9.5540   -5.3130   60.2930 N   0  0  0  0  0  0  0  0  0  0  0  0
    9.6290   -4.5550   59.1620 C   0  0  0  0  0  0  0  0  0  0  0  0
    8.7300   -5.4460   60.8800 H   0  0  0  0  0  0  0  0  0  0  0  0
   10.6680   -7.2770   62.5480 N   0  0  0  0  0  0  0  0  0  0  0  0
   10.2890   -6.7120   63.3080 H   0  0  0  0  0  0  0  0  0  0  0  0
   10.5000   -8.2830   62.5800 H   0  0  0  0  0  0  0  0  0  0  0  0
  1  4  1  0  0  0  0
  1  6  1  1  0  0  0
  1  5  1  0  0  0  0
  2  3  1  0  0  0  0
  2  5  1  1  0  0  0
  2 32  1  0  0  0  0
  3  4  1  0  0  0  0
  3 30  1  6  0  0  0
  4 28  1  1  0  0  0
  6  7  1  0  0  0  0
  7  8  1  0  0  0  0
  8 11  1  0  0  0  0
  8  9  2  1  0  0  0
  8 10  1  0  0  0  0
 11 12  1  0  0  0  0
 12 14  1  0  0  0  0
 12 13  2  0  0  0  0
 14 15  1  0  0  0  0
 14 19  1  6  0  0  0
 15 18  1  0  0  0  0
 15 16  1  0  0  0  0
 15 17  1  0  0  0  0
 19 20  1  0  0  0  0
 20 25  2  0  0  0  0
 20 21  1  0  0  0  0
 21 22  2  0  0  0  0
 22 23  1  0  0  0  0
 23 26  1  0  0  0  0
 23 24  2  0  0  0  0
 24 25  1  0  0  0  0
 26 27  1  0  0  0  0
 28 29  1  0  0  0  0
 30 31  1  0  0  0  0
 32 42  1  1  0  0  0
 32 33  1  0  0  0  0
 33 34  1  0  0  0  0
 33 35  1  6  0  0  0
 34 37  1  0  0  0  0
 34 36  1  0  0  0  0
 35 41  1  0  0  0  0
 35 39  2  0  0  0  0
 36 38  1  0  0  0  0
 38 39  1  0  0  0  0
 38 40  1  0  0  0  0
 39 44  1  0  0  0  0
 41 42  1  0  0  0  0
 41 43  1  0  0  0  0
 44 46  1  0  0  0  0
 44 45  1  0  0  0  0
M  END
>  <MODEL>
1

>  <REMARK>
 VINA RESULT:   -11.820      0.000      0.000
 INTER + INTRA:         -21.156
 INTER:                 -19.767
 INTRA:                  -1.389
 UNBOUND:                -1.389
  14 active torsions:
  status: ('A' for Active; 'I' for Inactive)
    1  A    between atoms: C_1  and  N_20 
    2  A    between atoms: C_1  and  C_9 
    3  A    between atoms: C_1  and  C_2 
    4  A    between atoms: C_2  and  C_3 
    5  A    between atoms: C_6  and  O_34 
    6  A    between atoms: C_9  and  O_37 
    7  A    between atoms: C_10  and  C_11 
    8  A    between atoms: C_10  and  O_40 
    9  A    between atoms: C_12  and  N_24 
   10  A    between atoms: C_13  and  O_42 
   11  A    between atoms: C_14  and  O_44 
   12  A    between atoms: C_17  and  N_27 
   13  A    between atoms: O_37  and  P_46 
   14  A    between atoms: O_40  and  P_46 

>  <COMPND>
    /home/daniil/Downloads/ml_docking_review/databases/Vina/outputs/7ROR_69X/7ROR_69X.pdbqt 

>  <AUTHOR>
    GENERATED BY OPEN BABEL 3.2.1

>  <MASTER>
        0    0    0    0    0    0    0    0   46    0   46    0

$$$$
