../../databases/Vina/outputs/7SFO_98L/7SFO_98L1.pdb
 OpenBabel08242616443D

 29 32  0  0  1  0  0  0  0  0999 V2000
    1.5410    7.4610   -4.3910 N   0  0  0  0  0  0  0  0  0  0  0  0
    1.0150    8.2870   -4.1070 H   0  0  0  0  0  0  0  0  0  0  0  0
    0.7280    4.0980   -5.0730 C   0  0  0  0  0  0  0  0  0  0  0  0
    0.9680    6.3120   -4.5900 C   0  0  1  0  0  0  0  0  0  0  0  0
    2.8590    7.4930   -4.5810 C   0  0  1  0  0  0  0  0  0  0  0  0
    3.0390    5.2850   -5.1470 C   0  0  0  0  0  0  0  0  0  0  0  0
   -0.5780    4.4030   -4.8350 C   0  0  0  0  0  0  0  0  0  0  0  0
    1.6790    5.1620   -4.9720 C   0  0  0  0  0  0  0  0  0  0  0  0
    3.6390    6.4600   -4.9460 N   0  0  0  0  0  0  0  0  0  0  0  0
    4.6460    6.5710   -5.0650 H   0  0  0  0  0  0  0  0  0  0  0  0
   -0.7960    6.0860   -4.3770 S   0  0  0  0  0  0  0  0  0  0  0  0
    3.6030    9.0930   -4.3220 Cl  0  0  0  0  0  0  0  0  0  0  0  0
    3.8250    4.1420   -5.5210 N   0  0  0  0  0  0  0  0  0  0  0  0
    3.4080    3.3690   -6.0410 H   0  0  0  0  0  0  0  0  0  0  0  0
    5.2150    4.1120   -5.1440 C   0  0  0  0  0  0  0  0  0  0  0  0
    5.9900    4.0030   -6.4540 C   0  0  0  0  0  0  0  0  0  0  0  0
    5.2720    4.2270   -7.7880 C   0  0  0  0  0  0  0  0  0  0  0  0
    5.9510    4.1170   -8.9180 C   0  0  0  0  0  0  0  0  0  0  0  0
    7.4390    3.7920   -8.8890 C   0  0  0  0  0  0  0  0  0  0  0  0
    8.0500    3.6110   -7.7370 C   0  0  0  0  0  0  0  0  0  0  0  0
    7.2660    3.7320   -6.4350 C   0  0  0  0  0  0  0  0  0  0  0  0
    9.4220    3.3080   -7.6970 O   0  0  0  0  0  0  0  0  0  0  0  0
    9.8140    2.7590   -8.3660 H   0  0  0  0  0  0  0  0  0  0  0  0
    1.0300    2.6970   -5.5450 C   0  0  0  0  0  0  0  0  0  0  0  0
    1.2440    1.5180   -4.6210 C   0  0  0  0  0  0  0  0  0  0  0  0
    1.4610    0.3420   -5.1690 C   0  0  0  0  0  0  0  0  0  0  0  0
    1.4370    0.1440   -6.6750 C   0  0  0  0  0  0  0  0  0  0  0  0
    1.2190    1.1610   -7.4880 C   0  0  0  0  0  0  0  0  0  0  0  0
    0.9900    2.5300   -6.8600 C   0  0  0  0  0  0  0  0  0  0  0  0
  1  4  1  0  0  0  0
  1  5  1  0  0  0  0
  1  2  1  0  0  0  0
  3 24  1  0  0  0  0
  3  8  1  0  0  0  0
  3  7  2  0  0  0  0
  4  8  1  1  0  0  0
  4 11  1  0  0  0  0
  5  9  1  0  0  0  0
  5 12  1  6  0  0  0
  6 13  1  0  0  0  0
  6  8  2  0  0  0  0
  6  9  1  0  0  0  0
  7 11  1  0  0  0  0
  9 10  1  0  0  0  0
 13 14  1  0  0  0  0
 13 15  1  0  0  0  0
 15 16  1  0  0  0  0
 16 17  2  0  0  0  0
 16 21  1  0  0  0  0
 17 18  1  0  0  0  0
 18 19  2  0  0  0  0
 19 20  1  0  0  0  0
 20 22  1  0  0  0  0
 20 21  2  0  0  0  0
 22 23  1  0  0  0  0
 24 29  2  0  0  0  0
 24 25  1  0  0  0  0
 25 26  2  0  0  0  0
 26 27  1  0  0  0  0
 27 28  2  0  0  0  0
 28 29  1  0  0  0  0
M  END
>  <MODEL>
1

>  <REMARK>
 VINA RESULT:   -10.310      0.000      0.000
 INTER + INTRA:         -13.931
 INTER:                 -13.022
 INTRA:                  -0.908
 UNBOUND:                -0.908
  5 active torsions:
  status: ('A' for Active; 'I' for Inactive)
    1  A    between atoms: N_3  and  C_15 
    2  A    between atoms: N_3  and  C_11 
    3  A    between atoms: C_6  and  C_8 
    4  A    between atoms: C_11  and  C_17 
    5  A    between atoms: C_18  and  O_26 

>  <COMPND>
    /home/daniil/Downloads/ml_docking_review/databases/Vina/outputs/7SFO_98L/7SFO_98L.pdbqt 

>  <AUTHOR>
    GENERATED BY OPEN BABEL 3.2.1

>  <MASTER>
        0    0    0    0    0    0    0    0   29    0   29    0

$$$$
