../../databases/Vina/outputs/6ZX3_QRZ/6ZX3_QRZ1.pdb
 OpenBabel08242612043D

 29 30  0  0  1  0  0  0  0  0999 V2000
   11.9370   11.8570   38.3340 C   0  0  2  0  0  0  0  0  0  0  0  0
   11.3570   10.5160   38.7360 C   0  0  2  0  0  0  0  0  0  0  0  0
   12.4570    9.5350   38.4120 C   0  0  2  0  0  0  0  0  0  0  0  0
   12.8980   11.5810   37.3120 O   0  0  0  0  0  0  0  0  0  0  0  0
   13.1330   10.1700   37.1910 C   0  0  1  0  0  0  0  0  0  0  0  0
   14.5900    9.9410   37.0540 N   0  0  0  0  0  0  0  0  0  0  0  0
   15.4510    9.9980   38.1530 C   0  0  0  0  0  0  0  0  0  0  0  0
   15.0190   10.3470   39.2670 O   0  0  0  0  0  0  0  0  0  0  0  0
   16.7510    9.7290   37.9960 N   0  0  0  0  0  0  0  0  0  0  0  0
   17.2830    9.3690   36.8060 C   0  0  0  0  0  0  0  0  0  0  0  0
   17.3670    9.7980   38.8060 H   0  0  0  0  0  0  0  0  0  0  0  0
   18.5320    9.1820   36.7890 O   0  0  0  0  0  0  0  0  0  0  0  0
   16.4900    9.2700   35.6770 C   0  0  0  0  0  0  0  0  0  0  0  0
   15.1490    9.6060   35.8040 C   0  0  0  0  0  0  0  0  0  0  0  0
   14.3560    9.8010   34.5900 C   0  0  0  0  0  0  0  0  0  0  0  0
   13.9900    8.6410   34.0480 N   0  0  0  0  0  0  0  0  0  0  0  0
   13.4370    8.7760   33.2020 H   0  0  0  0  0  0  0  0  0  0  0  0
   14.1670    7.7290   34.4700 H   0  0  0  0  0  0  0  0  0  0  0  0
   14.0780   11.2290   33.9290 S   0  0  0  0  0  0  0  0  0  0  0  0
   11.8620    8.2840   38.1150 O   0  0  0  0  0  0  0  0  0  0  0  0
   12.4040    7.8430   37.4730 H   0  0  0  0  0  0  0  0  0  0  0  0
   10.1390   10.2390   38.0040 O   0  0  0  0  0  0  0  0  0  0  0  0
   10.3090    9.9630   37.1120 H   0  0  0  0  0  0  0  0  0  0  0  0
   12.5860   12.6130   39.4780 C   0  0  0  0  0  0  0  0  0  0  0  0
   11.6580   12.6450   40.5460 O   0  0  0  0  0  0  0  0  0  0  0  0
   12.1010   13.0900   42.0120 P   0  0  0  0  0  0  0  0  0  0  0  0
   12.5070   14.5530   41.9160 O   0  0  0  0  0  0  0  0  0  0  0  0
   10.8310   12.9070   42.8020 O   0  0  0  0  0  0  0  0  0  0  0  0
   13.2250   12.2050   42.4840 O   0  0  0  0  0  0  0  0  0  0  0  0
  1  4  1  0  0  0  0
  1  2  1  0  0  0  0
  1 24  1  1  0  0  0
  2 22  1  6  0  0  0
  2  3  1  0  0  0  0
  3  5  1  0  0  0  0
  3 20  1  6  0  0  0
  4  5  1  0  0  0  0
  5  6  1  1  0  0  0
  6 14  1  0  0  0  0
  6  7  1  0  0  0  0
  7  9  1  0  0  0  0
  7  8  2  0  0  0  0
  9 10  1  0  0  0  0
  9 11  1  0  0  0  0
 10 13  1  0  0  0  0
 10 12  2  0  0  0  0
 13 14  2  0  0  0  0
 14 15  1  0  0  0  0
 15 19  2  0  0  0  0
 15 16  1  0  0  0  0
 16 17  1  0  0  0  0
 16 18  1  0  0  0  0
 20 21  1  0  0  0  0
 22 23  1  0  0  0  0
 24 25  1  0  0  0  0
 25 26  1  0  0  0  0
 26 27  2  0  0  0  0
 26 29  1  0  0  0  0
 26 28  1  0  0  0  0
M  END
>  <MODEL>
1

>  <REMARK>
 VINA RESULT:    -9.263      0.000      0.000
 INTER + INTRA:         -12.704
 INTER:                 -12.512
 INTRA:                  -0.192
 UNBOUND:                -0.192
  7 active torsions:
  status: ('A' for Active; 'I' for Inactive)
    1  A    between atoms: C_2  and  C_19 
    2  A    between atoms: P_4  and  O_7 
    3  A    between atoms: O_7  and  C_8 
    4  A    between atoms: C_8  and  C_9 
    5  A    between atoms: C_10  and  O_11 
    6  A    between atoms: C_13  and  O_14 
    7  A    between atoms: C_17  and  N_18 

>  <COMPND>
    /home/daniil/Downloads/ml_docking_review/databases/Vina/outputs/6ZX3_QRZ/6ZX3_QRZ.pdbqt 

>  <AUTHOR>
    GENERATED BY OPEN BABEL 3.2.1

>  <MASTER>
        0    0    0    0    0    0    0    0   29    0   29    0

$$$$
