../../databases/Vina/outputs/7C0U_FGO/7C0U_FGO1.pdb
 OpenBabel08242616453D

 53 58  0  0  1  0  0  0  0  0999 V2000
   41.9460   12.5610   55.9470 C   0  0  2  0  0  0  0  0  0  0  0  0
   39.9620   12.3280   54.8100 C   0  0  1  0  0  0  0  0  0  0  0  0
   40.2120   10.9540   55.3940 C   0  0  1  0  0  0  0  0  0  0  0  0
   41.5150   11.1380   56.1740 C   0  0  2  0  0  0  0  0  0  0  0  0
   39.1330   10.6160   56.3530 C   0  0  0  0  0  0  0  0  0  0  0  0
   41.2630   10.8710   57.6040 C   0  0  0  0  0  0  0  0  0  0  0  0
   39.7500   10.7960   57.7280 C   0  0  0  0  0  0  0  0  0  0  0  0
   41.2160   12.9710   54.8090 O   0  0  0  0  0  0  0  0  0  0  0  0
   43.4140   12.5860   55.5960 C   0  0  0  0  0  0  0  0  0  0  0  0
   43.6150   13.7190   54.7900 O   0  0  0  0  0  0  0  0  0  0  0  0
   44.4770   14.9290   55.3550 P   0  0  2  0  0  0  0  0  0  0  0  0
   45.0180   15.7250   54.1950 O   0  0  0  0  0  0  0  0  0  0  0  0
   45.6030   14.4230   56.4170 O   0  0  0  0  0  0  0  0  0  0  0  0
   43.4850   15.8850   56.1630 O   0  0  0  0  0  0  0  0  0  0  0  0
   42.6730   16.8830   55.5340 C   0  0  1  0  0  0  0  0  0  0  0  0
   41.1950   16.8330   55.8780 C   0  0  2  0  0  0  0  0  0  0  0  0
   41.2220   17.4490   57.2700 C   0  0  1  0  0  0  0  0  0  0  0  0
   42.3120   18.3550   57.2840 O   0  0  0  0  0  0  0  0  0  0  0  0
   43.1460   18.1800   56.1360 C   0  0  2  0  0  0  0  0  0  0  0  0
   40.6490   15.4980   55.9290 O   0  0  0  0  0  0  0  0  0  0  0  0
   41.2950   14.8230   56.1030 H   0  0  0  0  0  0  0  0  0  0  0  0
   39.9930   18.1630   57.7170 N   0  0  0  0  0  0  0  0  0  0  0  0
   39.2520   19.0740   56.9900 C   0  0  0  0  0  0  0  0  0  0  0  0
   38.1530   19.7210   57.6080 C   0  0  0  0  0  0  0  0  0  0  0  0
   37.8010   19.3840   58.9310 C   0  0  0  0  0  0  0  0  0  0  0  0
   38.5560   18.5060   59.6150 N   0  0  0  0  0  0  0  0  0  0  0  0
   36.8110   19.9100   59.5600 O   0  0  0  0  0  0  0  0  0  0  0  0
   39.6190   17.9070   59.0480 C   0  0  0  0  0  0  0  0  0  0  0  0
   38.3180   18.2900   60.5830 H   0  0  0  0  0  0  0  0  0  0  0  0
   40.3020   17.0850   59.6910 O   0  0  0  0  0  0  0  0  0  0  0  0
   43.0940   19.3280   55.1340 C   0  0  0  0  0  0  0  0  0  0  0  0
   41.9970   20.2300   55.3350 O   0  0  0  0  0  0  0  0  0  0  0  0
   41.4210   20.3120   54.5840 H   0  0  0  0  0  0  0  0  0  0  0  0
   39.4250   12.3280   53.4310 N   0  0  0  0  0  0  0  0  0  0  0  0
   39.3590   13.4540   52.7900 C   0  0  0  0  0  0  0  0  0  0  0  0
   38.8250   13.1530   51.4710 C   0  0  0  0  0  0  0  0  0  0  0  0
   39.6500   14.7150   53.1610 N   0  0  0  0  0  0  0  0  0  0  0  0
   38.6490   11.8280   51.4190 N   0  0  0  0  0  0  0  0  0  0  0  0
   38.6730   14.2910   50.5660 C   0  0  0  0  0  0  0  0  0  0  0  0
   39.0140   11.3230   52.6330 C   0  0  0  0  0  0  0  0  0  0  0  0
   38.3060   11.2940   50.6210 H   0  0  0  0  0  0  0  0  0  0  0  0
   39.0080   15.5040   51.0270 N   0  0  0  0  0  0  0  0  0  0  0  0
   38.2170   14.1110   49.4060 O   0  0  0  0  0  0  0  0  0  0  0  0
   39.4800   15.7080   52.2550 C   0  0  1  0  0  0  0  0  0  0  0  0
   38.8950   16.3070   50.4090 H   0  0  0  0  0  0  0  0  0  0  0  0
   39.9910   14.9180   54.1010 H   0  0  0  0  0  0  0  0  0  0  0  0
   39.8020   16.9590   52.6550 N   0  0  0  0  0  0  0  0  0  0  0  0
   39.5690   17.2680   53.5990 H   0  0  0  0  0  0  0  0  0  0  0  0
   40.2870   17.5470   51.9770 H   0  0  0  0  0  0  0  0  0  0  0  0
   39.2720   12.0090   58.2500 O   0  0  0  0  0  0  0  0  0  0  0  0
   39.7730   12.7100   57.8510 H   0  0  0  0  0  0  0  0  0  0  0  0
   39.3570    9.6980   58.5690 O   0  0  0  0  0  0  0  0  0  0  0  0
   39.3990    8.8920   58.0690 H   0  0  0  0  0  0  0  0  0  0  0  0
  1  8  1  0  0  0  0
  1  9  1  6  0  0  0
  1  4  1  0  0  0  0
  2 34  1  6  0  0  0
  2  8  1  0  0  0  0
  2  3  1  0  0  0  0
  3  4  1  0  0  0  0
  3  5  1  1  0  0  0
  4  6  1  1  0  0  0
  5  7  1  0  0  0  0
  6  7  1  0  0  0  0
  7 50  1  0  0  0  0
  7 52  1  0  0  0  0
  9 10  1  0  0  0  0
 10 11  1  0  0  0  0
 11 12  2  6  0  0  0
 11 14  1  0  0  0  0
 11 13  1  0  0  0  0
 15 14  1  1  0  0  0
 15 16  1  0  0  0  0
 15 19  1  0  0  0  0
 16 20  1  1  0  0  0
 16 17  1  0  0  0  0
 17 18  1  0  0  0  0
 17 22  1  6  0  0  0
 18 19  1  0  0  0  0
 19 31  1  6  0  0  0
 20 21  1  0  0  0  0
 22 23  1  0  0  0  0
 22 28  1  0  0  0  0
 23 24  2  0  0  0  0
 24 25  1  0  0  0  0
 25 27  2  0  0  0  0
 25 26  1  0  0  0  0
 26 28  1  0  0  0  0
 26 29  1  0  0  0  0
 28 30  2  0  0  0  0
 31 32  1  0  0  0  0
 32 33  1  0  0  0  0
 34 40  1  0  0  0  0
 34 35  1  0  0  0  0
 35 36  2  0  0  0  0
 35 37  1  0  0  0  0
 36 39  1  0  0  0  0
 36 38  1  0  0  0  0
 37 44  1  0  0  0  0
 37 46  1  0  0  0  0
 38 41  1  0  0  0  0
 38 40  1  0  0  0  0
 39 43  2  0  0  0  0
 39 42  1  0  0  0  0
 42 45  1  0  0  0  0
 42 44  1  0  0  0  0
 44 47  1  1  0  0  0
 47 49  1  0  0  0  0
 47 48  1  0  0  0  0
 50 51  1  0  0  0  0
 52 53  1  0  0  0  0
M  END
>  <MODEL>
1

>  <REMARK>
 VINA RESULT:   -10.578      0.000      0.000
 INTER + INTRA:         -20.252
 INTER:                 -17.072
 INTRA:                  -3.180
 UNBOUND:                -3.180
  13 active torsions:
  status: ('A' for Active; 'I' for Inactive)
    1  A    between atoms: C_1  and  C_35 
    2  A    between atoms: C_2  and  N_43 
    3  A    between atoms: C_7  and  N_48 
    4  A    between atoms: P_12  and  O_34 
    5  A    between atoms: P_12  and  O_14 
    6  A    between atoms: O_14  and  C_15 
    7  A    between atoms: C_16  and  C_17 
    8  A    between atoms: C_17  and  O_18 
    9  A    between atoms: C_21  and  N_22 
   10  A    between atoms: C_31  and  O_32 
   11  A    between atoms: O_34  and  C_35 
   12  A    between atoms: C_37  and  O_38 
   13  A    between atoms: C_37  and  O_40 

>  <COMPND>
    /home/daniil/Downloads/ml_docking_review/databases/Vina/outputs/7C0U_FGO/7C0U_FGO.pdbqt 

>  <AUTHOR>
    GENERATED BY OPEN BABEL 3.2.1

>  <MASTER>
        0    0    0    0    0    0    0    0   53    0   53    0

$$$$
