../../databases/Vina/outputs/7TB0_UD1/7TB0_UD11.pdb
 OpenBabel08242616453D

 46 48  0  0  1  0  0  0  0  0999 V2000
   28.0120  -31.0590   41.0790 P   0  0  2  0  0  0  0  0  0  0  0  0
   27.3400  -32.3740   41.3050 O   0  0  0  0  0  0  0  0  0  0  0  0
   29.4880  -31.0430   41.2400 O   0  0  0  0  0  0  0  0  0  0  0  0
   27.4020  -29.8540   41.9780 O   0  0  0  0  0  0  0  0  0  0  0  0
   26.5750  -28.8120   41.4430 C   0  0  0  0  0  0  0  0  0  0  0  0
   25.2620  -28.8300   42.2140 C   0  0  2  0  0  0  0  0  0  0  0  0
   24.0720  -29.4850   41.4930 C   0  0  2  0  0  0  0  0  0  0  0  0
   22.8930  -28.8560   42.1580 C   0  0  2  0  0  0  0  0  0  0  0  0
   23.3990  -27.4420   42.3090 C   0  0  1  0  0  0  0  0  0  0  0  0
   24.8230  -27.4650   42.3090 O   0  0  0  0  0  0  0  0  0  0  0  0
   23.9390  -30.8280   41.8960 O   0  0  0  0  0  0  0  0  0  0  0  0
   23.2700  -30.7600   42.5660 H   0  0  0  0  0  0  0  0  0  0  0  0
   22.8690  -29.3970   43.4870 O   0  0  0  0  0  0  0  0  0  0  0  0
   22.5020  -30.2690   43.3980 H   0  0  0  0  0  0  0  0  0  0  0  0
   22.8640  -26.4660   41.3360 N   0  0  0  0  0  0  0  0  0  0  0  0
   22.6620  -25.1670   41.8000 C   0  0  0  0  0  0  0  0  0  0  0  0
   22.8650  -24.8620   42.9600 O   0  0  0  0  0  0  0  0  0  0  0  0
   22.2420  -24.2630   40.8430 N   0  0  0  0  0  0  0  0  0  0  0  0
   22.0590  -24.5060   39.4990 C   0  0  0  0  0  0  0  0  0  0  0  0
   22.0460  -23.3150   41.1650 H   0  0  0  0  0  0  0  0  0  0  0  0
   21.7140  -23.5950   38.7370 O   0  0  0  0  0  0  0  0  0  0  0  0
   22.2780  -25.8670   39.1080 C   0  0  0  0  0  0  0  0  0  0  0  0
   22.6750  -26.7620   40.0110 C   0  0  0  0  0  0  0  0  0  0  0  0
   27.6210  -30.5290   39.6200 O   0  0  0  0  0  0  0  0  0  0  0  0
   28.3970  -30.6610   38.2260 P   0  0  1  0  0  0  0  0  0  0  0  0
   29.8100  -30.2080   38.4410 O   0  0  0  0  0  0  0  0  0  0  0  0
   28.1640  -31.9690   37.5600 O   0  0  0  0  0  0  0  0  0  0  0  0
   27.6990  -29.4760   37.3830 O   0  0  0  0  0  0  0  0  0  0  0  0
   26.2910  -29.4000   37.3520 C   0  0  1  0  0  0  0  0  0  0  0  0
   25.7820  -28.3110   38.1110 O   0  0  0  0  0  0  0  0  0  0  0  0
   26.3420  -27.0460   37.7100 C   0  0  1  0  0  0  0  0  0  0  0  0
   25.9550  -26.7350   36.2580 C   0  0  2  0  0  0  0  0  0  0  0  0
   26.3930  -27.8660   35.3420 C   0  0  1  0  0  0  0  0  0  0  0  0
   25.9070  -29.2100   35.8730 C   0  0  1  0  0  0  0  0  0  0  0  0
   25.8330  -25.9940   38.6750 C   0  0  0  0  0  0  0  0  0  0  0  0
   26.7150  -24.8660   38.8350 O   0  0  0  0  0  0  0  0  0  0  0  0
   26.3050  -24.0250   38.6690 H   0  0  0  0  0  0  0  0  0  0  0  0
   26.6140  -25.5190   35.8990 O   0  0  0  0  0  0  0  0  0  0  0  0
   27.0340  -25.1870   36.6830 H   0  0  0  0  0  0  0  0  0  0  0  0
   25.9590  -27.7040   33.9790 O   0  0  0  0  0  0  0  0  0  0  0  0
   25.1000  -27.3060   33.8990 H   0  0  0  0  0  0  0  0  0  0  0  0
   26.4320  -30.3210   35.1110 N   0  0  0  0  0  0  0  0  0  0  0  0
   25.7730  -30.8630   34.0970 C   0  0  0  0  0  0  0  0  0  0  0  0
   26.4690  -31.9850   33.3730 C   0  0  0  0  0  0  0  0  0  0  0  0
   24.6840  -30.3870   33.7170 O   0  0  0  0  0  0  0  0  0  0  0  0
   27.3440  -30.7020   35.3640 H   0  0  0  0  0  0  0  0  0  0  0  0
  1 24  1  0  0  0  0
  1  3  2  1  0  0  0
  1  2  1  0  0  0  0
  1  4  1  0  0  0  0
  4  5  1  0  0  0  0
  6  5  1  6  0  0  0
  6  7  1  0  0  0  0
  6 10  1  0  0  0  0
  7 11  1  1  0  0  0
  7  8  1  0  0  0  0
  8  9  1  0  0  0  0
  8 13  1  1  0  0  0
  9 15  1  6  0  0  0
  9 10  1  0  0  0  0
 11 12  1  0  0  0  0
 13 14  1  0  0  0  0
 15 23  1  0  0  0  0
 15 16  1  0  0  0  0
 16 18  1  0  0  0  0
 16 17  2  0  0  0  0
 18 19  1  0  0  0  0
 18 20  1  0  0  0  0
 19 21  2  0  0  0  0
 19 22  1  0  0  0  0
 22 23  2  0  0  0  0
 24 25  1  0  0  0  0
 25 28  1  0  0  0  0
 25 27  2  6  0  0  0
 25 26  1  0  0  0  0
 29 28  1  6  0  0  0
 29 34  1  0  0  0  0
 29 30  1  0  0  0  0
 30 31  1  0  0  0  0
 31 32  1  0  0  0  0
 31 35  1  1  0  0  0
 32 33  1  0  0  0  0
 32 38  1  6  0  0  0
 33 40  1  6  0  0  0
 33 34  1  0  0  0  0
 34 42  1  6  0  0  0
 35 36  1  0  0  0  0
 36 37  1  0  0  0  0
 38 39  1  0  0  0  0
 40 41  1  0  0  0  0
 42 43  1  0  0  0  0
 42 46  1  0  0  0  0
 43 44  1  0  0  0  0
 43 45  2  0  0  0  0
M  END
>  <MODEL>
1

>  <REMARK>
 VINA RESULT:   -10.095      0.000      0.000
 INTER + INTRA:         -19.763
 INTER:                 -17.472
 INTRA:                  -2.291
 UNBOUND:                -2.291
  15 active torsions:
  status: ('A' for Active; 'I' for Inactive)
    1  A    between atoms: C_1  and  O_11 
    2  A    between atoms: C_2  and  N_9 
    3  A    between atoms: C_3  and  O_12 
    4  A    between atoms: C_4  and  O_14 
    5  A    between atoms: C_5  and  C_6 
    6  A    between atoms: C_6  and  O_17 
       I    between atoms: C_7  and  N_9 
    7  A    between atoms: O_11  and  P_44 
    8  A    between atoms: N_20  and  C_29 
    9  A    between atoms: C_30  and  O_31 
   10  A    between atoms: C_33  and  O_36 
   11  A    between atoms: C_34  and  C_38 
   12  A    between atoms: C_38  and  O_39 
   13  A    between atoms: O_39  and  P_40 
   14  A    between atoms: P_40  and  O_43 
   15  A    between atoms: O_43  and  P_44 

>  <COMPND>
    /home/daniil/Downloads/ml_docking_review/databases/Vina/outputs/7TB0_UD1/7TB0_UD1.pdbqt 

>  <AUTHOR>
    GENERATED BY OPEN BABEL 3.2.1

>  <MASTER>
        0    0    0    0    0    0    0    0   46    0   46    0

$$$$
