../../databases/Vina/outputs/7T0D_FPP/7T0D_FPP1.pdb
 OpenBabel08242612033D

 24 23  0  0  0  0  0  0  0  0999 V2000
   34.4650  -31.3440   -0.1920 C   0  0  0  0  0  0  0  0  0  0  0  0
   33.7160  -32.1500    0.5280 C   0  0  0  0  0  0  0  0  0  0  0  0
   34.2690  -32.6500    1.8460 C   0  0  0  0  0  0  0  0  0  0  0  0
   32.3210  -32.6250    0.1190 C   0  0  0  0  0  0  0  0  0  0  0  0
   31.8520  -32.0830   -1.2240 C   0  0  0  0  0  0  0  0  0  0  0  0
   30.4560  -32.6500   -1.5060 C   0  0  0  0  0  0  0  0  0  0  0  0
   29.9340  -32.6140   -2.7170 C   0  0  0  0  0  0  0  0  0  0  0  0
   30.7040  -31.9830   -3.8760 C   0  0  0  0  0  0  0  0  0  0  0  0
   28.5270  -33.1620   -2.9830 C   0  0  0  0  0  0  0  0  0  0  0  0
   28.4960  -34.5820   -3.5440 C   0  0  0  0  0  0  0  0  0  0  0  0
   27.2240  -34.7020   -4.3860 C   0  0  0  0  0  0  0  0  0  0  0  0
   26.6410  -35.8560   -4.6270 C   0  0  0  0  0  0  0  0  0  0  0  0
   27.2080  -37.1540   -4.0540 C   0  0  0  0  0  0  0  0  0  0  0  0
   25.3810  -35.8900   -5.4900 C   0  0  0  0  0  0  0  0  0  0  0  0
   35.8390  -30.9430    0.3430 C   0  0  0  0  0  0  0  0  0  0  0  0
   36.0300  -29.5710    0.1570 O   0  0  0  0  0  0  0  0  0  0  0  0
   37.3710  -29.0720   -0.6600 P   0  0  1  0  0  0  0  0  0  0  0  0
   38.4570  -28.7250    0.3340 O   0  0  0  0  0  0  0  0  0  0  0  0
   37.8320  -30.1280   -1.6310 O   0  0  0  0  0  0  0  0  0  0  0  0
   36.9830  -27.7430   -1.5480 O   0  0  0  0  0  0  0  0  0  0  0  0
   37.9970  -26.9270   -2.5490 P   0  0  0  0  0  0  0  0  0  0  0  0
   37.4750  -25.5370   -2.8170 O   0  0  0  0  0  0  0  0  0  0  0  0
   39.3720  -26.8660   -1.9300 O   0  0  0  0  0  0  0  0  0  0  0  0
   38.0540  -27.7180   -3.8430 O   0  0  0  0  0  0  0  0  0  0  0  0
  1 15  1  0  0  0  0
  1  2  2  0  0  0  0
  2  4  1  0  0  0  0
  2  3  1  0  0  0  0
  4  5  1  0  0  0  0
  5  6  1  0  0  0  0
  6  7  2  0  0  0  0
  7  8  1  0  0  0  0
  7  9  1  0  0  0  0
  9 10  1  0  0  0  0
 10 11  1  0  0  0  0
 11 12  2  0  0  0  0
 12 14  1  0  0  0  0
 12 13  1  0  0  0  0
 15 16  1  0  0  0  0
 16 17  1  0  0  0  0
 17 19  2  6  0  0  0
 17 20  1  0  0  0  0
 17 18  1  0  0  0  0
 20 21  1  0  0  0  0
 21 24  2  0  0  0  0
 21 22  1  0  0  0  0
 21 23  1  0  0  0  0
M  END
>  <MODEL>
1

>  <REMARK>
 VINA RESULT:    -9.373      0.000      0.000
 INTER + INTRA:         -16.014
 INTER:                 -15.400
 INTRA:                  -0.614
 UNBOUND:                -0.614
  11 active torsions:
  status: ('A' for Active; 'I' for Inactive)
    1  A    between atoms: C_1  and  O_2 
    2  A    between atoms: C_1  and  C_3 
    3  A    between atoms: O_2  and  P_17 
    4  A    between atoms: C_4  and  C_6 
    5  A    between atoms: C_6  and  C_7 
    6  A    between atoms: C_7  and  C_8 
    7  A    between atoms: C_9  and  C_11 
    8  A    between atoms: C_11  and  C_12 
    9  A    between atoms: C_12  and  C_13 
   10  A    between atoms: P_17  and  O_20 
   11  A    between atoms: O_20  and  P_21 

>  <COMPND>
    /home/daniil/Downloads/ml_docking_review/databases/Vina/outputs/7T0D_FPP/7T0D_FPP.pdbqt 

>  <AUTHOR>
    GENERATED BY OPEN BABEL 3.2.1

>  <MASTER>
        0    0    0    0    0    0    0    0   24    0   24    0

$$$$
