../../databases/Vina/outputs/8DW5_FQ7/8DW5_FQ71.pdb
 OpenBabel08242616453D

 19 20  0  0  0  0  0  0  0  0999 V2000
   29.2470    4.3860    9.5980 N   0  0  0  0  0  0  0  0  0  0  0  0
   29.6080    4.1380    8.6770 H   0  0  0  0  0  0  0  0  0  0  0  0
   29.9660    5.4360   10.2480 C   0  0  0  0  0  0  0  0  0  0  0  0
   29.3220    6.6550   10.3450 C   0  0  0  0  0  0  0  0  0  0  0  0
   29.9860    7.6890   10.9150 C   0  0  0  0  0  0  0  0  0  0  0  0
   29.1560    9.2270   11.0420 Cl  0  0  0  0  0  0  0  0  0  0  0  0
   31.2760    7.5610   11.4150 C   0  0  0  0  0  0  0  0  0  0  0  0
   31.8990    6.3330   11.3070 C   0  0  0  0  0  0  0  0  0  0  0  0
   33.5440    6.2170   11.9500 Cl  0  0  0  0  0  0  0  0  0  0  0  0
   31.2860    5.2730   10.6990 C   0  0  0  0  0  0  0  0  0  0  0  0
   28.0770    3.5980   10.0210 C   0  0  0  0  0  0  0  0  0  0  0  0
   28.3770    2.6870   11.0020 C   0  0  0  0  0  0  0  0  0  0  0  0
   27.3970    1.8430   11.5210 C   0  0  0  0  0  0  0  0  0  0  0  0
   26.0960    1.8830   11.0660 C   0  0  0  0  0  0  0  0  0  0  0  0
   25.7980    2.7900   10.0740 C   0  0  0  0  0  0  0  0  0  0  0  0
   26.7850    3.6270    9.5680 C   0  0  0  0  0  0  0  0  0  0  0  0
   26.4650    4.6410    8.4950 C   0  0  0  0  0  0  0  0  0  0  0  0
   27.2880    4.8700    7.5580 O   0  0  0  0  0  0  0  0  0  0  0  0
   25.3860    5.2650    8.5780 O   0  0  0  0  0  0  0  0  0  0  0  0
  1  2  1  0  0  0  0
  1 11  1  0  0  0  0
  1  3  1  0  0  0  0
  3  4  2  0  0  0  0
  3 10  1  0  0  0  0
  4  5  1  0  0  0  0
  5  6  1  0  0  0  0
  5  7  2  0  0  0  0
  7  8  1  0  0  0  0
  8 10  2  0  0  0  0
  8  9  1  0  0  0  0
 11 16  2  0  0  0  0
 11 12  1  0  0  0  0
 12 13  2  0  0  0  0
 13 14  1  0  0  0  0
 14 15  2  0  0  0  0
 15 16  1  0  0  0  0
 16 17  1  0  0  0  0
 17 18  2  0  0  0  0
 17 19  1  0  0  0  0
M  END
>  <MODEL>
1

>  <REMARK>
 VINA RESULT:    -5.196      0.000      0.000
 INTER + INTRA:          -6.904
 INTER:                  -6.107
 INTRA:                  -0.797
 UNBOUND:                -0.797
  3 active torsions:
  status: ('A' for Active; 'I' for Inactive)
    1  A    between atoms: N_4  and  C_12 
    2  A    between atoms: N_4  and  C_11 
    3  A    between atoms: C_7  and  C_9 

>  <COMPND>
    /home/daniil/Downloads/ml_docking_review/databases/Vina/outputs/8DW5_FQ7/8DW5_FQ7.pdbqt 

>  <AUTHOR>
    GENERATED BY OPEN BABEL 3.2.1

>  <MASTER>
        0    0    0    0    0    0    0    0   19    0   19    0

$$$$
