../../databases/Vina/outputs/7OMX_CNA/7OMX_CNA1.pdb
 OpenBabel08242616453D

 55 59  0  0  1  0  0  0  0  0999 V2000
    8.4310  -13.0030   -9.2450 P   0  0  1  0  0  0  0  0  0  0  0  0
    7.4030  -13.9490   -8.6800 O   0  0  0  0  0  0  0  0  0  0  0  0
    8.8670  -11.8450   -8.4180 O   0  0  0  0  0  0  0  0  0  0  0  0
    9.7320  -13.8650   -9.6020 O   0  0  0  0  0  0  0  0  0  0  0  0
   10.1940  -15.3870   -9.6410 P   0  0  1  0  0  0  0  0  0  0  0  0
    9.2070  -16.1730  -10.4190 O   0  0  0  0  0  0  0  0  0  0  0  0
   11.6490  -15.3640  -10.0110 O   0  0  0  0  0  0  0  0  0  0  0  0
   10.1700  -15.7470   -8.0880 O   0  0  0  0  0  0  0  0  0  0  0  0
   11.3740  -15.5980   -7.2760 C   0  0  0  0  0  0  0  0  0  0  0  0
   11.0130  -14.7000   -6.1170 C   0  0  2  0  0  0  0  0  0  0  0  0
   10.9590  -13.2070   -6.5110 C   0  0  2  0  0  0  0  0  0  0  0  0
   12.3570  -12.6900   -6.1500 C   0  0  2  0  0  0  0  0  0  0  0  0
   12.6810  -13.4000   -4.8190 C   0  0  1  0  0  0  0  0  0  0  0  0
   12.0130  -14.7950   -4.9510 C   0  0  0  0  0  0  0  0  0  0  0  0
    9.9170  -12.5510   -5.7780 O   0  0  0  0  0  0  0  0  0  0  0  0
   10.0220  -12.6300   -4.8360 H   0  0  0  0  0  0  0  0  0  0  0  0
   12.3390  -11.2710   -6.0040 O   0  0  0  0  0  0  0  0  0  0  0  0
   12.6800  -10.9980   -5.1600 H   0  0  0  0  0  0  0  0  0  0  0  0
   14.1410  -13.4920   -4.5060 N   0  0  0  0  0  0  0  0  0  0  0  0
   15.0650  -13.3440   -5.4760 C   0  0  0  0  0  0  0  0  0  0  0  0
   16.4090  -13.5040   -5.2470 C   0  0  0  0  0  0  0  0  0  0  0  0
   16.8640  -13.7650   -3.9780 C   0  0  0  0  0  0  0  0  0  0  0  0
   15.9380  -13.8770   -2.9430 C   0  0  0  0  0  0  0  0  0  0  0  0
   14.5770  -13.7570   -3.2200 C   0  0  0  0  0  0  0  0  0  0  0  0
   16.3790  -14.1530   -1.5280 C   0  0  0  0  0  0  0  0  0  0  0  0
   17.5630  -14.4110   -1.2950 O   0  0  0  0  0  0  0  0  0  0  0  0
   15.4610  -14.0880   -0.5800 N   0  0  0  0  0  0  0  0  0  0  0  0
   15.7590  -14.2740    0.3780 H   0  0  0  0  0  0  0  0  0  0  0  0
   14.4830  -13.8740   -0.7720 H   0  0  0  0  0  0  0  0  0  0  0  0
    7.8300  -12.5000  -10.5970 O   0  0  0  0  0  0  0  0  0  0  0  0
    6.9770  -13.3610  -11.3970 C   0  0  0  0  0  0  0  0  0  0  0  0
    7.4870  -13.2700  -12.8010 C   0  0  1  0  0  0  0  0  0  0  0  0
    7.9260  -11.9230  -13.1020 O   0  0  0  0  0  0  0  0  0  0  0  0
    9.1440  -12.0050  -13.8060 C   0  0  2  0  0  0  0  0  0  0  0  0
    9.8520  -13.2050  -13.1980 C   0  0  1  0  0  0  0  0  0  0  0  0
    8.6750  -14.1830  -13.1490 C   0  0  2  0  0  0  0  0  0  0  0  0
    9.8370  -10.7280  -13.6860 N   0  0  1  0  0  0  0  0  0  0  0  0
   10.2180  -10.1460  -12.5070 C   0  0  2  0  0  0  0  0  0  0  0  0
    9.9600  -10.5920  -11.2720 N   0  0  0  0  0  0  0  0  0  0  0  0
   10.9050   -8.9960  -12.8400 C   0  0  0  0  0  0  0  0  0  0  0  0
   10.4380   -9.7460  -10.3680 C   0  0  0  0  0  0  0  0  0  0  0  0
    9.4660  -11.4590  -11.0570 H   0  0  0  0  0  0  0  0  0  0  0  0
   11.1550   -8.6340  -10.5340 N   0  0  0  0  0  0  0  0  0  0  0  0
   11.3710   -8.1880  -11.7900 C   0  0  0  0  0  0  0  0  0  0  0  0
   11.5320   -8.1310   -9.7300 H   0  0  0  0  0  0  0  0  0  0  0  0
   10.9890   -8.8760  -14.2180 N   0  0  0  0  0  0  0  0  0  0  0  0
   10.3520   -9.9270  -14.6720 C   0  0  0  0  0  0  0  0  0  0  0  0
   11.4430   -8.1370  -14.7550 H   0  0  0  0  0  0  0  0  0  0  0  0
   12.0090   -7.0300  -11.9690 N   0  0  0  0  0  0  0  0  0  0  0  0
   11.5700   -6.1890  -12.3440 H   0  0  0  0  0  0  0  0  0  0  0  0
   12.9980   -6.9640  -11.7260 H   0  0  0  0  0  0  0  0  0  0  0  0
   10.9310  -13.6610  -13.9810 O   0  0  0  0  0  0  0  0  0  0  0  0
   11.1660  -14.5650  -13.8120 H   0  0  0  0  0  0  0  0  0  0  0  0
    8.3940  -14.7540  -14.4190 O   0  0  0  0  0  0  0  0  0  0  0  0
    8.6700  -14.1210  -15.0720 H   0  0  0  0  0  0  0  0  0  0  0  0
  1 30  1  0  0  0  0
  1  4  1  0  0  0  0
  1  2  2  1  0  0  0
  1  3  1  0  0  0  0
  4  5  1  0  0  0  0
  5  6  2  6  0  0  0
  5  7  1  0  0  0  0
  5  8  1  0  0  0  0
  8  9  1  0  0  0  0
 10  9  1  6  0  0  0
 10 11  1  0  0  0  0
 10 14  1  0  0  0  0
 11 12  1  0  0  0  0
 11 15  1  1  0  0  0
 12 17  1  1  0  0  0
 12 13  1  0  0  0  0
 13 14  1  6  0  0  0
 13 19  1  0  0  0  0
 15 16  1  0  0  0  0
 17 18  1  0  0  0  0
 19 20  1  0  0  0  0
 19 24  1  0  0  0  0
 20 21  1  0  0  0  0
 21 22  2  0  0  0  0
 22 23  1  0  0  0  0
 23 24  2  0  0  0  0
 23 25  1  0  0  0  0
 25 26  2  0  0  0  0
 25 27  1  0  0  0  0
 27 29  1  0  0  0  0
 27 28  1  0  0  0  0
 30 31  1  0  0  0  0
 32 31  1  1  0  0  0
 32 36  1  0  0  0  0
 32 33  1  0  0  0  0
 34 33  1  1  0  0  0
 34 37  1  0  0  0  0
 34 35  1  0  0  0  0
 35 52  1  6  0  0  0
 35 36  1  0  0  0  0
 36 54  1  6  0  0  0
 37 47  1  6  0  0  0
 37 38  1  0  0  0  0
 38 40  1  1  0  0  0
 38 39  1  0  0  0  0
 39 42  1  0  0  0  0
 39 41  1  0  0  0  0
 40 46  1  0  0  0  0
 40 44  2  0  0  0  0
 41 43  1  0  0  0  0
 43 44  1  0  0  0  0
 43 45  1  0  0  0  0
 44 49  1  0  0  0  0
 46 48  1  0  0  0  0
 46 47  1  0  0  0  0
 49 50  1  0  0  0  0
 49 51  1  0  0  0  0
 52 53  1  0  0  0  0
 54 55  1  0  0  0  0
M  END
>  <MODEL>
1

>  <REMARK>
 VINA RESULT:   -10.433      0.000      0.000
 INTER + INTRA:         -21.546
 INTER:                 -18.668
 INTRA:                  -2.878
 UNBOUND:                -2.878
  16 active torsions:
  status: ('A' for Active; 'I' for Inactive)
    1  A    between atoms: P_1  and  O_30 
    2  A    between atoms: P_1  and  O_4 
    3  A    between atoms: O_4  and  C_5 
    4  A    between atoms: C_5  and  C_6 
    5  A    between atoms: C_8  and  O_9 
    6  A    between atoms: C_11  and  O_12 
    7  A    between atoms: C_14  and  N_15 
    8  A    between atoms: C_20  and  N_21 
    9  A    between atoms: O_30  and  P_31 
   10  A    between atoms: P_31  and  O_34 
   11  A    between atoms: O_34  and  C_35 
   12  A    between atoms: C_35  and  C_36 
   13  A    between atoms: C_38  and  O_39 
   14  A    between atoms: C_41  and  O_42 
   15  A    between atoms: C_44  and  N_45 
   16  A    between atoms: C_47  and  C_48 
       I    between atoms: C_48  and  N_50 

>  <COMPND>
    /home/daniil/Downloads/ml_docking_review/databases/Vina/outputs/7OMX_CNA/7OMX_CNA.pdbqt 

>  <AUTHOR>
    GENERATED BY OPEN BABEL 3.2.1

>  <MASTER>
        0    0    0    0    0    0    0    0   55    0   55    0

$$$$
