../../databases/Vina/outputs/7CNS_PMV/7CNS_PMV1.pdb
 OpenBabel08242616453D

 15 14  0  0  1  0  0  0  0  0999 V2000
   -0.0040  -20.7450  -19.6640 C   0  0  2  0  0  0  0  0  0  0  0  0
   -0.9970  -21.8910  -19.7290 C   0  0  0  0  0  0  0  0  0  0  0  0
    0.6190  -20.8000  -18.2670 C   0  0  0  0  0  0  0  0  0  0  0  0
    1.9760  -20.1050  -18.2040 C   0  0  0  0  0  0  0  0  0  0  0  0
    2.7360  -20.6160  -17.1070 O   0  0  0  0  0  0  0  0  0  0  0  0
    3.1780  -19.6680  -15.8890 P   0  0  0  0  0  0  0  0  0  0  0  0
    2.1810  -18.5370  -15.8130 O   0  0  0  0  0  0  0  0  0  0  0  0
    3.1530  -20.4750  -14.6030 O   0  0  0  0  0  0  0  0  0  0  0  0
    4.6200  -19.0400  -16.1680 O   0  0  0  0  0  0  0  0  0  0  0  0
   -0.7440  -19.5200  -19.8190 O   0  0  0  0  0  0  0  0  0  0  0  0
   -0.7640  -19.2720  -20.7360 H   0  0  0  0  0  0  0  0  0  0  0  0
    1.0980  -20.7980  -20.7350 C   0  0  0  0  0  0  0  0  0  0  0  0
    0.7610  -20.2670  -22.1230 C   0  0  0  0  0  0  0  0  0  0  0  0
   -0.3900  -20.3820  -22.6060 O   0  0  0  0  0  0  0  0  0  0  0  0
    1.7080  -19.8240  -22.8240 O   0  0  0  0  0  0  0  0  0  0  0  0
  1 12  1  0  0  0  0
  1 10  1  0  0  0  0
  1  2  1  6  0  0  0
  1  3  1  0  0  0  0
  3  4  1  0  0  0  0
  4  5  1  0  0  0  0
  5  6  1  0  0  0  0
  6  9  2  0  0  0  0
  6  7  1  0  0  0  0
  6  8  1  0  0  0  0
 10 11  1  0  0  0  0
 12 13  1  0  0  0  0
 13 15  2  0  0  0  0
 13 14  1  0  0  0  0
M  END
>  <MODEL>
1

>  <REMARK>
 VINA RESULT:    -7.546      0.000      0.000
 INTER + INTRA:         -10.830
 INTER:                 -10.413
 INTRA:                  -0.416
 UNBOUND:                -0.416
  7 active torsions:
  status: ('A' for Active; 'I' for Inactive)
    1  A    between atoms: P_2  and  O_5 
    2  A    between atoms: O_5  and  C_6 
    3  A    between atoms: C_6  and  C_7 
    4  A    between atoms: C_7  and  C_8 
    5  A    between atoms: C_8  and  O_9 
    6  A    between atoms: C_8  and  C_12 
    7  A    between atoms: C_12  and  C_13 

>  <COMPND>
    /home/daniil/Downloads/ml_docking_review/databases/Vina/outputs/7CNS_PMV/7CNS_PMV.pdbqt 

>  <AUTHOR>
    GENERATED BY OPEN BABEL 3.2.1

>  <MASTER>
        0    0    0    0    0    0    0    0   15    0   15    0

$$$$
