../../databases/Vina/outputs/7NTG_F6R/7NTG_F6R1.pdb
 OpenBabel08242616453D

 20 19  0  0  1  0  0  0  0  0999 V2000
   30.6430   53.4360   18.7730 C   0  0  2  0  0  0  0  0  0  0  0  0
   29.4150   52.8440   18.1180 C   0  0  1  0  0  0  0  0  0  0  0  0
   28.5740   51.9800   19.0780 C   0  0  0  0  0  0  0  0  0  0  0  0
   28.9610   50.8960   19.2570 O   0  0  0  0  0  0  0  0  0  0  0  0
   27.2440   52.4620   19.7040 C   0  0  0  0  0  0  0  0  0  0  0  0
   26.1760   52.8200   18.8050 O   0  0  0  0  0  0  0  0  0  0  0  0
   25.2860   52.6360   19.0850 H   0  0  0  0  0  0  0  0  0  0  0  0
   28.7480   54.0090   17.7080 O   0  0  0  0  0  0  0  0  0  0  0  0
   27.8980   54.1120   18.1210 H   0  0  0  0  0  0  0  0  0  0  0  0
   31.0290   52.6650   19.8720 O   0  0  0  0  0  0  0  0  0  0  0  0
   30.7000   51.7780   19.7880 H   0  0  0  0  0  0  0  0  0  0  0  0
   30.2110   54.8310   19.2410 C   0  0  1  0  0  0  0  0  0  0  0  0
   30.4940   55.0060   20.7270 C   0  0  0  0  0  0  0  0  0  0  0  0
   31.4430   56.0240   20.9520 O   0  0  0  0  0  0  0  0  0  0  0  0
   32.9440   55.6150   21.2790 P   0  0  0  0  0  0  0  0  0  0  0  0
   33.8170   56.6760   20.5740 O   0  0  0  0  0  0  0  0  0  0  0  0
   33.0620   55.8440   22.8240 O   0  0  0  0  0  0  0  0  0  0  0  0
   33.1980   54.1390   20.9430 O   0  0  0  0  0  0  0  0  0  0  0  0
   30.9230   55.7680   18.4680 O   0  0  0  0  0  0  0  0  0  0  0  0
   31.6190   56.1110   19.0150 H   0  0  0  0  0  0  0  0  0  0  0  0
  1  2  1  0  0  0  0
  1 12  1  0  0  0  0
  1 10  1  1  0  0  0
  2  8  1  1  0  0  0
  2  3  1  0  0  0  0
  3  4  2  0  0  0  0
  3  5  1  0  0  0  0
  5  6  1  0  0  0  0
  6  7  1  0  0  0  0
  8  9  1  0  0  0  0
 10 11  1  0  0  0  0
 12 19  1  0  0  0  0
 12 13  1  1  0  0  0
 13 14  1  0  0  0  0
 14 15  1  0  0  0  0
 15 16  2  0  0  0  0
 15 18  1  0  0  0  0
 15 17  1  0  0  0  0
 19 20  1  0  0  0  0
M  END
>  <MODEL>
1

>  <REMARK>
 VINA RESULT:    -6.320      0.000      0.000
 INTER + INTRA:         -10.960
 INTER:                  -9.645
 INTRA:                  -1.315
 UNBOUND:                -1.315
  11 active torsions:
  status: ('A' for Active; 'I' for Inactive)
    1  A    between atoms: C_1  and  C_2 
    2  A    between atoms: C_1  and  O_7 
    3  A    between atoms: C_2  and  C_3 
    4  A    between atoms: C_3  and  C_4 
    5  A    between atoms: C_3  and  O_10 
    6  A    between atoms: C_4  and  O_12 
    7  A    between atoms: C_4  and  C_5 
    8  A    between atoms: C_5  and  C_6 
    9  A    between atoms: C_5  and  O_14 
   10  A    between atoms: C_6  and  O_16 
   11  A    between atoms: O_16  and  P_17 

>  <COMPND>
    /home/daniil/Downloads/ml_docking_review/databases/Vina/outputs/7NTG_F6R/7NTG_F6R.pdbqt 

>  <AUTHOR>
    GENERATED BY OPEN BABEL 3.2.1

>  <MASTER>
        0    0    0    0    0    0    0    0   20    0   20    0

$$$$
