../../databases/Vina/outputs/6Z1C_7EY/6Z1C_7EY1.pdb
 OpenBabel08242616453D

 24 26  0  0  1  0  0  0  0  0999 V2000
    6.1380   -3.3610   20.8900 C   0  0  2  0  0  0  0  0  0  0  0  0
    7.1560   -3.9110   21.6870 C   0  0  0  0  0  0  0  0  0  0  0  0
    8.1900   -3.1820   22.1400 C   0  0  0  0  0  0  0  0  0  0  0  0
    8.2720   -1.8900   21.7940 N   0  0  0  0  0  0  0  0  0  0  0  0
    9.0640   -1.3220   22.0970 H   0  0  0  0  0  0  0  0  0  0  0  0
    6.2040   -2.0800   20.5700 N   0  0  0  0  0  0  0  0  0  0  0  0
    5.4760   -1.6510   19.9970 H   0  0  0  0  0  0  0  0  0  0  0  0
    7.2660   -1.3350   21.0190 C   0  0  0  0  0  0  0  0  0  0  0  0
    5.0830   -4.5050   20.6090 S   0  0  0  0  0  0  0  0  0  0  0  0
    5.6420   -5.7990   21.2800 C   0  0  0  0  0  0  0  0  0  0  0  0
    6.8640   -5.4490   21.9670 C   0  0  0  0  0  0  0  0  0  0  0  0
    7.5670   -6.5860   22.6870 C   0  0  0  0  0  0  0  0  0  0  0  0
    7.3870   -6.9330   24.0060 C   0  0  0  0  0  0  0  0  0  0  0  0
    8.1210   -7.9860   24.5250 C   0  0  0  0  0  0  0  0  0  0  0  0
    9.0420   -8.6720   23.7550 C   0  0  0  0  0  0  0  0  0  0  0  0
    9.8290   -9.8280   24.3650 C   0  0  0  0  0  0  0  0  0  0  0  0
    9.2280   -8.3190   22.4350 C   0  0  0  0  0  0  0  0  0  0  0  0
    8.4960   -7.2760   21.9170 C   0  0  0  0  0  0  0  0  0  0  0  0
    9.4990   -3.8050   23.2260 S   0  0  0  0  0  0  0  0  0  0  0  0
   10.3640   -2.3130   23.7830 C   0  0  0  0  0  0  0  0  0  0  0  0
   11.6960   -2.2000   23.0450 C   0  0  0  0  0  0  0  0  0  0  0  0
   11.7950   -0.9710   22.1450 C   0  0  0  0  0  0  0  0  0  0  0  0
   12.8850   -0.3370   22.1360 O   0  0  0  0  0  0  0  0  0  0  0  0
   10.8320   -0.5930   21.4260 O   0  0  0  0  0  0  0  0  0  0  0  0
  1  6  1  0  0  0  0
  1  9  1  1  0  0  0
  1  2  1  0  0  0  0
  2 11  1  0  0  0  0
  2  3  2  0  0  0  0
  3  4  1  0  0  0  0
  3 19  1  0  0  0  0
  4  8  1  0  0  0  0
  4  5  1  0  0  0  0
  6  7  1  0  0  0  0
  6  8  1  0  0  0  0
  9 10  1  0  0  0  0
 10 11  2  0  0  0  0
 11 12  1  0  0  0  0
 12 18  2  0  0  0  0
 12 13  1  0  0  0  0
 13 14  2  0  0  0  0
 14 15  1  0  0  0  0
 15 17  2  0  0  0  0
 15 16  1  0  0  0  0
 17 18  1  0  0  0  0
 19 20  1  0  0  0  0
 20 21  1  0  0  0  0
 21 22  1  0  0  0  0
 22 24  2  0  0  0  0
 22 23  1  0  0  0  0
M  END
>  <MODEL>
1

>  <REMARK>
 VINA RESULT:    -7.642      0.000      0.000
 INTER + INTRA:         -10.823
 INTER:                  -9.876
 INTRA:                  -0.947
 UNBOUND:                -0.947
  5 active torsions:
  status: ('A' for Active; 'I' for Inactive)
    1  A    between atoms: C_3  and  S_13 
    2  A    between atoms: C_9  and  C_11 
    3  A    between atoms: C_11  and  C_12 
    4  A    between atoms: C_12  and  S_13 
    5  A    between atoms: C_17  and  C_18 

>  <COMPND>
    /home/daniil/Downloads/ml_docking_review/databases/Vina/outputs/6Z1C_7EY/6Z1C_7EY.pdbqt 

>  <AUTHOR>
    GENERATED BY OPEN BABEL 3.2.1

>  <MASTER>
        0    0    0    0    0    0    0    0   24    0   24    0

$$$$
