../../databases/Vina/outputs/7WL4_JFU/7WL4_JFU1.pdb
 OpenBabel08242616453D

 36 40  0  0  1  0  0  0  0  0999 V2000
    6.2040   12.2000   32.6240 C   0  0  0  0  0  0  0  0  0  0  0  0
    7.3640   11.5750   33.1200 C   0  0  0  0  0  0  0  0  0  0  0  0
    7.2470   10.6000   34.1310 C   0  0  0  0  0  0  0  0  0  0  0  0
    6.0390   10.2730   34.6220 C   0  0  0  0  0  0  0  0  0  0  0  0
    5.6390    9.4000   35.5720 N   0  0  0  0  0  0  0  0  0  0  0  0
    4.2960    9.4920   35.6570 C   0  0  0  0  0  0  0  0  0  0  0  0
    3.6160    8.8120   36.4370 O   0  0  0  0  0  0  0  0  0  0  0  0
    3.8450   10.4220   34.7600 C   0  0  0  0  0  0  0  0  0  0  0  0
    2.6490   10.9450   34.3720 C   0  0  0  0  0  0  0  0  0  0  0  0
    4.9510   10.8820   34.1500 C   0  0  0  0  0  0  0  0  0  0  0  0
    4.9660   11.8470   33.1820 C   0  0  2  0  0  0  0  0  0  0  0  0
    3.7700   12.3610   32.7900 N   0  0  0  0  0  0  0  0  0  0  0  0
    3.7450   13.0550   32.0430 H   0  0  0  0  0  0  0  0  0  0  0  0
    2.6090   11.9680   33.3720 C   0  0  0  0  0  0  0  0  0  0  0  0
    6.2490   13.1700   31.6580 N   0  0  0  0  0  0  0  0  0  0  0  0
    5.9890   14.1290   31.8890 H   0  0  0  0  0  0  0  0  0  0  0  0
    6.7200   12.7970   30.1230 S   0  0  0  0  0  0  0  0  0  0  0  0
    6.3690   13.9130   29.1490 O   0  0  0  0  0  0  0  0  0  0  0  0
    8.1880   12.4270   30.1440 O   0  0  0  0  0  0  0  0  0  0  0  0
    5.8520   11.3420   29.6820 C   0  0  0  0  0  0  0  0  0  0  0  0
    6.5440   10.1540   29.5710 C   0  0  0  0  0  0  0  0  0  0  0  0
    5.8860    8.9850   29.2580 C   0  0  0  0  0  0  0  0  0  0  0  0
    4.5300    8.9940   29.0460 C   0  0  0  0  0  0  0  0  0  0  0  0
    3.8250   10.1700   29.1340 C   0  0  0  0  0  0  0  0  0  0  0  0
    3.9550    7.8720   28.7800 F   0  0  0  0  0  0  0  0  0  0  0  0
    4.4840   11.3550   29.4530 C   0  0  0  0  0  0  0  0  0  0  0  0
    3.8360   12.4980   29.5450 F   0  0  0  0  0  0  0  0  0  0  0  0
    1.4550   12.5470   32.9070 N   0  0  0  0  0  0  0  0  0  0  0  0
    0.1500   12.0850   33.3100 C   0  0  0  0  0  0  0  0  0  0  0  0
   -0.8780   13.1930   33.1710 C   0  0  0  0  0  0  0  0  0  0  0  0
   -1.0010   13.6690   31.8050 N   0  0  0  0  0  0  0  0  0  0  0  0
   -2.0520   14.6550   31.6640 C   0  0  0  0  0  0  0  0  0  0  0  0
    0.2870   14.3870   31.6100 C   0  0  0  0  0  0  0  0  0  0  0  0
    1.4980   13.4500   31.7340 C   0  0  0  0  0  0  0  0  0  0  0  0
    6.5950    8.5280   36.2930 C   0  0  0  0  0  0  0  0  0  0  0  0
    6.8170    7.2060   35.5530 C   0  0  0  0  0  0  0  0  0  0  0  0
  1 15  1  0  0  0  0
  1  2  2  0  0  0  0
  2  3  1  0  0  0  0
  3  4  2  0  0  0  0
  4 10  1  0  0  0  0
  4  5  1  0  0  0  0
  5  6  1  0  0  0  0
  5 35  1  0  0  0  0
  6  8  1  0  0  0  0
  6  7  2  0  0  0  0
  8 10  2  0  0  0  0
  8  9  1  0  0  0  0
  9 14  2  0  0  0  0
 10 11  1  0  0  0  0
 11  1  1  6  0  0  0
 11 12  1  0  0  0  0
 12 13  1  0  0  0  0
 12 14  1  0  0  0  0
 14 28  1  0  0  0  0
 15 17  1  0  0  0  0
 15 16  1  0  0  0  0
 17 18  2  0  0  0  0
 17 20  1  0  0  0  0
 17 19  2  0  0  0  0
 20 26  2  0  0  0  0
 20 21  1  0  0  0  0
 21 22  2  0  0  0  0
 22 23  1  0  0  0  0
 23 25  1  0  0  0  0
 23 24  2  0  0  0  0
 24 26  1  0  0  0  0
 26 27  1  0  0  0  0
 28 34  1  0  0  0  0
 28 29  1  0  0  0  0
 29 30  1  0  0  0  0
 30 31  1  0  0  0  0
 31 33  1  0  0  0  0
 31 32  1  0  0  0  0
 33 34  1  0  0  0  0
 35 36  1  0  0  0  0
M  END
>  <MODEL>
1

>  <REMARK>
 VINA RESULT:    -9.840      0.000      0.000
 INTER + INTRA:         -14.428
 INTER:                 -12.716
 INTRA:                  -1.712
 UNBOUND:                -1.712
  5 active torsions:
  status: ('A' for Active; 'I' for Inactive)
    1  A    between atoms: C_8  and  S_9 
    2  A    between atoms: S_9  and  N_12 
    3  A    between atoms: N_12  and  C_14 
    4  A    between atoms: N_18  and  C_19 
    5  A    between atoms: C_29  and  N_30 

>  <COMPND>
    /home/daniil/Downloads/ml_docking_review/databases/Vina/outputs/7WL4_JFU/7WL4_JFU.pdbqt 

>  <AUTHOR>
    GENERATED BY OPEN BABEL 3.2.1

>  <MASTER>
        0    0    0    0    0    0    0    0   36    0   36    0

$$$$
