../../databases/Vina/outputs/7UJ4_OQ4/7UJ4_OQ41.pdb
 OpenBabel08242611493D

 47 51  0  0  1  0  0  0  0  0999 V2000
  -19.8410    1.7970   24.7640 C   0  0  0  0  0  0  0  0  0  0  0  0
  -19.2930    3.0510   24.8590 C   0  0  0  0  0  0  0  0  0  0  0  0
  -18.6280    3.5660   23.8430 N   0  0  0  0  0  0  0  0  0  0  0  0
  -18.1800    4.4800   23.9140 H   0  0  0  0  0  0  0  0  0  0  0  0
  -18.5640    2.8470   22.7160 C   0  0  0  0  0  0  0  0  0  0  0  0
  -19.0240    1.6000   22.5690 N   0  0  0  0  0  0  0  0  0  0  0  0
  -18.8610    1.0730   21.7110 H   0  0  0  0  0  0  0  0  0  0  0  0
  -19.7000    1.0780   23.5830 C   0  0  0  0  0  0  0  0  0  0  0  0
  -20.1630   -0.1940   23.4810 N   0  0  0  0  0  0  0  0  0  0  0  0
  -20.9100   -0.9950   24.4430 C   0  0  0  0  0  0  0  0  0  0  0  0
  -20.5670   -2.2060   23.4760 C   0  0  2  0  0  0  0  0  0  0  0  0
  -21.8060   -2.8830   22.8980 C   0  0  0  0  0  0  0  0  0  0  0  0
  -19.6390   -3.2860   24.0300 C   0  0  0  0  0  0  0  0  0  0  0  0
  -19.8620   -1.1950   22.4710 C   0  0  0  0  0  0  0  0  0  0  0  0
  -21.4610   -3.8960   21.8330 C   0  0  0  0  0  0  0  0  0  0  0  0
  -20.5110   -4.9300   22.3510 N   0  0  0  0  0  0  0  0  0  0  0  0
  -19.2870   -4.2950   22.9610 C   0  0  0  0  0  0  0  0  0  0  0  0
  -20.1260   -5.8230   21.2130 C   0  0  0  0  0  0  0  0  0  0  0  0
  -19.2580   -7.0130   21.6290 C   0  0  1  0  0  0  0  0  0  0  0  0
  -19.9500   -7.9250   22.6520 C   0  0  0  0  0  0  0  0  0  0  0  0
  -19.0990   -9.1230   23.0390 C   0  0  0  0  0  0  0  0  0  0  0  0
  -18.6170   -9.8710   21.8160 C   0  0  1  0  0  0  0  0  0  0  0  0
  -17.8950   -8.9660   20.8310 C   0  0  0  0  0  0  0  0  0  0  0  0
  -18.7880   -7.8080   20.4120 C   0  0  0  0  0  0  0  0  0  0  0  0
  -17.7110  -10.9660   22.2050 N   0  0  0  0  0  0  0  0  0  0  0  0
  -16.8930  -10.7410   22.7710 H   0  0  0  0  0  0  0  0  0  0  0  0
  -17.9560  -12.5200   21.7730 S   0  0  0  0  0  0  0  0  0  0  0  0
  -18.8080  -12.4510   20.6260 O   0  0  0  0  0  0  0  0  0  0  0  0
  -16.6590  -13.1250   21.6500 O   0  0  0  0  0  0  0  0  0  0  0  0
  -18.8430  -13.2690   23.1290 C   0  0  0  0  0  0  0  0  0  0  0  0
  -19.8910  -14.2660   22.6760 C   0  0  0  0  0  0  0  0  0  0  0  0
  -20.5180    1.3000   25.8260 O   0  0  0  0  0  0  0  0  0  0  0  0
  -20.9960    2.1080   26.8460 C   0  0  0  0  0  0  0  0  0  0  0  0
  -20.1280    2.5290   27.8290 C   0  0  0  0  0  0  0  0  0  0  0  0
  -20.5960    3.2990   28.8780 C   0  0  0  0  0  0  0  0  0  0  0  0
  -21.9400    3.5890   28.9030 C   0  0  0  0  0  0  0  0  0  0  0  0
  -22.8360    3.1530   27.9600 C   0  0  0  0  0  0  0  0  0  0  0  0
  -22.3810    4.3550   29.9240 F   0  0  0  0  0  0  0  0  0  0  0  0
  -22.3700    2.3550   26.9130 C   0  0  0  0  0  0  0  0  0  0  0  0
  -23.2930    1.7680   25.8580 C   0  0  0  0  0  0  0  0  0  0  0  0
  -23.6370    0.6020   25.9960 O   0  0  0  0  0  0  0  0  0  0  0  0
  -23.7230    2.4630   24.7900 N   0  0  0  0  0  0  0  0  0  0  0  0
  -24.4990    1.8190   23.7200 C   0  0  0  0  0  0  0  0  0  0  0  0
  -23.6470    1.1100   22.7090 C   0  0  0  0  0  0  0  0  0  0  0  0
  -23.5430    3.9130   24.6410 C   0  0  0  0  0  0  0  0  0  0  0  0
  -24.8370    4.5570   24.1930 C   0  0  0  0  0  0  0  0  0  0  0  0
  -22.3720    4.2240   23.7440 C   0  0  0  0  0  0  0  0  0  0  0  0
  1  8  2  0  0  0  0
  1  2  1  0  0  0  0
  1 32  1  0  0  0  0
  2  3  1  0  0  0  0
  3  5  1  0  0  0  0
  3  4  1  0  0  0  0
  5  6  1  0  0  0  0
  6  7  1  0  0  0  0
  6  8  1  0  0  0  0
  8  9  1  0  0  0  0
  9 14  1  0  0  0  0
  9 10  1  0  0  0  0
 11 10  1  1  0  0  0
 11 14  1  0  0  0  0
 11 12  1  0  0  0  0
 11 13  1  0  0  0  0
 12 15  1  0  0  0  0
 13 17  1  0  0  0  0
 15 16  1  0  0  0  0
 16 18  1  0  0  0  0
 16 17  1  0  0  0  0
 19 18  1  6  0  0  0
 19 24  1  0  0  0  0
 19 20  1  0  0  0  0
 20 21  1  0  0  0  0
 21 22  1  0  0  0  0
 22 23  1  0  0  0  0
 22 25  1  1  0  0  0
 23 24  1  0  0  0  0
 25 27  1  0  0  0  0
 25 26  1  0  0  0  0
 27 28  2  0  0  0  0
 27 29  2  0  0  0  0
 27 30  1  0  0  0  0
 30 31  1  0  0  0  0
 32 33  1  0  0  0  0
 33 39  2  0  0  0  0
 33 34  1  0  0  0  0
 34 35  2  0  0  0  0
 35 36  1  0  0  0  0
 36 37  2  0  0  0  0
 36 38  1  0  0  0  0
 37 39  1  0  0  0  0
 39 40  1  0  0  0  0
 40 42  1  0  0  0  0
 40 41  2  0  0  0  0
 42 43  1  0  0  0  0
 42 45  1  0  0  0  0
 43 44  1  0  0  0  0
 45 47  1  0  0  0  0
 45 46  1  0  0  0  0
M  END
>  <MODEL>
1

>  <REMARK>
 VINA RESULT:    -9.720      0.000      0.000
 INTER + INTRA:         -17.150
 INTER:                 -15.970
 INTRA:                  -1.180
 UNBOUND:                -1.180
  11 active torsions:
  status: ('A' for Active; 'I' for Inactive)
    1  A    between atoms: C_2  and  N_4 
       I    between atoms: N_4  and  C_7 
    2  A    between atoms: N_4  and  C_5 
    3  A    between atoms: C_7  and  C_9 
    4  A    between atoms: C_15  and  O_16 
    5  A    between atoms: O_16  and  C_17 
    6  A    between atoms: C_24  and  N_25 
    7  A    between atoms: N_33  and  C_34 
    8  A    between atoms: C_34  and  C_35 
    9  A    between atoms: C_40  and  N_41 
   10  A    between atoms: N_41  and  S_43 
   11  A    between atoms: S_43  and  C_46 

>  <COMPND>
    /home/daniil/Downloads/ml_docking_review/databases/Vina/outputs/7UJ4_OQ4/7UJ4_OQ4.pdbqt 

>  <AUTHOR>
    GENERATED BY OPEN BABEL 3.2.1

>  <MASTER>
        0    0    0    0    0    0    0    0   47    0   47    0

$$$$
