../../databases/Vina/outputs/7MFP_Z7P/7MFP_Z7P1.pdb
 OpenBabel08242616453D

 58 61  0  0  1  0  0  0  0  0999 V2000
  -77.6080  -16.8720   18.2040 C   0  0  1  0  0  0  0  0  0  0  0  0
  -76.8020  -17.4160   19.2420 O   0  0  0  0  0  0  0  0  0  0  0  0
  -75.6100  -18.0590   18.7500 C   0  0  2  0  0  0  0  0  0  0  0  0
  -74.9680  -18.8110   19.9000 C   0  0  0  0  0  0  0  0  0  0  0  0
  -74.7050  -17.0360   18.0860 C   0  0  2  0  0  0  0  0  0  0  0  0
  -75.4290  -16.3110   16.9330 C   0  0  1  0  0  0  0  0  0  0  0  0
  -76.8400  -15.8630   17.3120 C   0  0  1  0  0  0  0  0  0  0  0  0
  -78.1090  -17.9810   17.4850 O   0  0  0  0  0  0  0  0  0  0  0  0
  -79.7160  -17.9580   17.2230 P   0  0  1  0  0  0  0  0  0  0  0  0
  -79.8050  -17.5110   15.8250 O   0  0  0  0  0  0  0  0  0  0  0  0
  -80.3000  -19.3300   17.5360 O   0  0  0  0  0  0  0  0  0  0  0  0
  -80.2310  -16.8640   18.2820 O   0  0  0  0  0  0  0  0  0  0  0  0
  -81.1800  -15.5530   18.1100 P   0  0  2  0  0  0  0  0  0  0  0  0
  -82.2350  -15.7920   17.0670 O   0  0  0  0  0  0  0  0  0  0  0  0
  -80.2820  -14.4300   17.7460 O   0  0  0  0  0  0  0  0  0  0  0  0
  -81.7610  -15.3810   19.5760 O   0  0  0  0  0  0  0  0  0  0  0  0
  -80.9070  -15.3920   20.7010 C   0  0  0  0  0  0  0  0  0  0  0  0
  -81.3760  -14.3880   21.7240 C   0  0  2  0  0  0  0  0  0  0  0  0
  -82.7780  -13.8720   21.4510 C   0  0  2  0  0  0  0  0  0  0  0  0
  -82.5430  -12.4830   20.9400 C   0  0  2  0  0  0  0  0  0  0  0  0
  -81.2510  -12.0660   21.6540 C   0  0  1  0  0  0  0  0  0  0  0  0
  -80.5060  -13.2800   21.6780 O   0  0  0  0  0  0  0  0  0  0  0  0
  -83.4440  -13.8360   22.7340 O   0  0  0  0  0  0  0  0  0  0  0  0
  -82.9270  -13.2560   23.2800 H   0  0  0  0  0  0  0  0  0  0  0  0
  -83.7140  -11.6700   21.1750 O   0  0  0  0  0  0  0  0  0  0  0  0
  -84.2780  -12.0930   21.8120 H   0  0  0  0  0  0  0  0  0  0  0  0
  -80.5810  -11.0210   20.8600 N   0  0  0  0  0  0  0  0  0  0  0  0
  -80.1440  -11.2520   19.5970 C   0  0  0  0  0  0  0  0  0  0  0  0
  -79.5480  -10.2490   18.8240 C   0  0  0  0  0  0  0  0  0  0  0  0
  -79.3580   -8.9800   19.3850 C   0  0  0  0  0  0  0  0  0  0  0  0
  -79.7480   -8.7880   20.6590 N   0  0  0  0  0  0  0  0  0  0  0  0
  -78.8430   -8.0330   18.7240 O   0  0  0  0  0  0  0  0  0  0  0  0
  -80.3660   -9.7330   21.3880 C   0  0  0  0  0  0  0  0  0  0  0  0
  -79.5650   -7.8830   21.0920 H   0  0  0  0  0  0  0  0  0  0  0  0
  -80.7330   -9.4760   22.5480 O   0  0  0  0  0  0  0  0  0  0  0  0
  -77.5950  -15.5410   16.1450 O   0  0  0  0  0  0  0  0  0  0  0  0
  -77.8280  -14.6200   16.1410 H   0  0  0  0  0  0  0  0  0  0  0  0
  -74.6680  -15.1290   16.6150 O   0  0  0  0  0  0  0  0  0  0  0  0
  -75.0830  -14.7110   15.8700 H   0  0  0  0  0  0  0  0  0  0  0  0
  -73.5110  -17.7660   17.6260 N   0  0  0  0  0  0  0  0  0  0  0  0
  -72.4470  -17.2360   17.2180 C   0  0  0  0  0  0  0  0  0  0  0  0
  -73.5510  -18.7850   17.6400 H   0  0  0  0  0  0  0  0  0  0  0  0
  -71.3260  -18.0790   16.8590 C   0  0  0  0  0  0  0  0  0  0  0  0
  -70.9900  -19.2920   17.6540 C   0  0  0  0  0  0  0  0  0  0  0  0
  -69.8240  -20.1250   17.2390 C   0  0  1  0  0  0  0  0  0  0  0  0
  -69.4910  -21.3900   17.9950 C   0  0  0  0  0  0  0  0  0  0  0  0
  -69.1160  -19.7410   16.1750 N   0  0  0  0  0  0  0  0  0  0  0  0
  -69.3700  -18.6130   15.4650 C   0  0  0  0  0  0  0  0  0  0  0  0
  -68.3380  -20.3300   15.8780 H   0  0  0  0  0  0  0  0  0  0  0  0
  -70.4390  -17.7510   15.7370 C   0  0  0  0  0  0  0  0  0  0  0  0
  -71.7040  -19.6700   18.7240 O   0  0  0  0  0  0  0  0  0  0  0  0
  -72.6140  -19.4040   18.7830 H   0  0  0  0  0  0  0  0  0  0  0  0
  -70.6570  -16.5330   14.8510 C   0  0  0  0  0  0  0  0  0  0  0  0
  -70.3040  -15.3380   15.5750 O   0  0  0  0  0  0  0  0  0  0  0  0
  -70.8030  -13.9520   14.9310 P   0  0  0  0  0  0  0  0  0  0  0  0
  -72.3060  -14.0410   14.9170 O   0  0  0  0  0  0  0  0  0  0  0  0
  -70.2410  -14.0460   13.4770 O   0  0  0  0  0  0  0  0  0  0  0  0
  -70.2410  -12.7150   15.5900 O   0  0  0  0  0  0  0  0  0  0  0  0
  1  7  1  0  0  0  0
  1  8  1  6  0  0  0
  1  2  1  0  0  0  0
  2  3  1  0  0  0  0
  3  5  1  0  0  0  0
  3  4  1  1  0  0  0
  5  6  1  0  0  0  0
  5 40  1  6  0  0  0
  6 38  1  1  0  0  0
  6  7  1  0  0  0  0
  7 36  1  6  0  0  0
  8  9  1  0  0  0  0
  9 10  2  6  0  0  0
  9 11  1  0  0  0  0
  9 12  1  0  0  0  0
 12 13  1  0  0  0  0
 13 14  2  6  0  0  0
 13 15  1  0  0  0  0
 13 16  1  0  0  0  0
 16 17  1  0  0  0  0
 18 17  1  6  0  0  0
 18 19  1  0  0  0  0
 18 22  1  0  0  0  0
 19 20  1  0  0  0  0
 19 23  1  1  0  0  0
 20 25  1  1  0  0  0
 20 21  1  0  0  0  0
 21 27  1  6  0  0  0
 21 22  1  0  0  0  0
 23 24  1  0  0  0  0
 25 26  1  0  0  0  0
 27 28  1  0  0  0  0
 27 33  1  0  0  0  0
 28 29  2  0  0  0  0
 29 30  1  0  0  0  0
 30 32  2  0  0  0  0
 30 31  1  0  0  0  0
 31 34  1  0  0  0  0
 31 33  1  0  0  0  0
 33 35  2  0  0  0  0
 36 37  1  0  0  0  0
 38 39  1  0  0  0  0
 40 41  1  0  0  0  0
 40 42  1  0  0  0  0
 41 43  1  0  0  0  0
 43 50  1  0  0  0  0
 43 44  2  0  0  0  0
 44 45  1  0  0  0  0
 44 51  1  0  0  0  0
 45 47  1  0  0  0  0
 45 46  1  6  0  0  0
 47 48  1  0  0  0  0
 47 49  1  0  0  0  0
 48 50  2  0  0  0  0
 50 53  1  0  0  0  0
 51 52  1  0  0  0  0
 53 54  1  0  0  0  0
 54 55  1  0  0  0  0
 55 57  2  0  0  0  0
 55 56  1  0  0  0  0
 55 58  1  0  0  0  0
M  END
>  <MODEL>
1

>  <REMARK>
 VINA RESULT:   -12.440      0.000      0.000
 INTER + INTRA:         -26.511
 INTER:                 -23.713
 INTRA:                  -2.798
 UNBOUND:                -2.798
  18 active torsions:
  status: ('A' for Active; 'I' for Inactive)
    1  A    between atoms: N_9  and  C_10 
    2  A    between atoms: C_12  and  O_13 
    3  A    between atoms: C_15  and  O_16 
    4  A    between atoms: C_18  and  C_19 
    5  A    between atoms: C_19  and  O_20 
    6  A    between atoms: O_20  and  P_21 
    7  A    between atoms: P_21  and  O_24 
    8  A    between atoms: O_24  and  P_25 
    9  A    between atoms: P_25  and  O_28 
   10  A    between atoms: O_28  and  C_29 
   11  A    between atoms: C_33  and  N_40 
   12  A    between atoms: C_34  and  O_35 
   13  A    between atoms: C_37  and  O_38 
   14  A    between atoms: C_42  and  C_43 
   15  A    between atoms: C_44  and  O_45 
   16  A    between atoms: C_49  and  C_53 
   17  A    between atoms: C_53  and  O_54 
   18  A    between atoms: O_54  and  P_55 

>  <COMPND>
    /home/daniil/Downloads/ml_docking_review/databases/Vina/outputs/7MFP_Z7P/7MFP_Z7P.pdbqt 

>  <AUTHOR>
    GENERATED BY OPEN BABEL 3.2.1

>  <MASTER>
        0    0    0    0    0    0    0    0   58    0   58    0

$$$$
