../../databases/Vina/outputs/7NR6_UO8/7NR6_UO81.pdb
 OpenBabel08242612043D

 22 24  0  0  1  0  0  0  0  0999 V2000
   53.6880   63.4730  285.7510 C   0  0  0  0  0  0  0  0  0  0  0  0
   53.2240   61.6290  286.7050 C   0  0  0  0  0  0  0  0  0  0  0  0
   52.2920   62.5420  287.1440 C   0  0  0  0  0  0  0  0  0  0  0  0
   51.2930   60.9560  288.4910 C   0  0  2  0  0  0  0  0  0  0  0  0
   53.1670   60.3190  287.1940 C   0  0  0  0  0  0  0  0  0  0  0  0
   52.5880   63.7240  286.5210 N   0  0  0  0  0  0  0  0  0  0  0  0
   54.0990   62.2370  285.8250 N   0  0  0  0  0  0  0  0  0  0  0  0
   54.8910   61.8130  285.3410 H   0  0  0  0  0  0  0  0  0  0  0  0
   51.3040   62.2510  288.0490 N   0  0  0  0  0  0  0  0  0  0  0  0
   50.6290   62.9460  288.3680 H   0  0  0  0  0  0  0  0  0  0  0  0
   52.1720   60.0420  288.0940 N   0  0  0  0  0  0  0  0  0  0  0  0
   52.1030   59.0980  288.4730 H   0  0  0  0  0  0  0  0  0  0  0  0
   54.2180   59.1040  286.7430 S   0  0  0  0  0  0  0  0  0  0  0  0
   51.8660   65.0140  286.6080 C   0  0  0  0  0  0  0  0  0  0  0  0
   52.8080   66.1840  286.8590 C   0  0  0  0  0  0  0  0  0  0  0  0
   52.0270   67.4460  287.2060 C   0  0  0  0  0  0  0  0  0  0  0  0
   50.6740   67.4910  286.5130 C   0  0  0  0  0  0  0  0  0  0  0  0
   50.6880   66.7270  285.2050 C   0  0  0  0  0  0  0  0  0  0  0  0
   50.9440   65.2420  285.4220 C   0  0  0  0  0  0  0  0  0  0  0  0
   50.3420   60.6180  289.3600 N   0  0  0  0  0  0  0  0  0  0  0  0
   49.3940   60.9730  289.2320 H   0  0  0  0  0  0  0  0  0  0  0  0
   50.6110   60.0080  290.1320 H   0  0  0  0  0  0  0  0  0  0  0  0
  1  7  1  0  0  0  0
  1  6  1  0  0  0  0
  2  7  1  0  0  0  0
  2  3  2  0  0  0  0
  2  5  1  0  0  0  0
  3  6  1  0  0  0  0
  3  9  1  0  0  0  0
  4  9  1  0  0  0  0
  4 11  1  0  0  0  0
  4 20  1  6  0  0  0
  5 13  2  0  0  0  0
  5 11  1  0  0  0  0
  6 14  1  0  0  0  0
  7  8  1  0  0  0  0
  9 10  1  0  0  0  0
 11 12  1  0  0  0  0
 14 19  1  0  0  0  0
 14 15  1  0  0  0  0
 15 16  1  0  0  0  0
 16 17  1  0  0  0  0
 17 18  1  0  0  0  0
 18 19  1  0  0  0  0
 20 21  1  0  0  0  0
 20 22  1  0  0  0  0
M  END
>  <MODEL>
1

>  <REMARK>
 VINA RESULT:    -8.553      0.000      0.000
 INTER + INTRA:          -9.525
 INTER:                  -9.303
 INTRA:                  -0.222
 UNBOUND:                -0.222
  2 active torsions:
  status: ('A' for Active; 'I' for Inactive)
    1  A    between atoms: C_4  and  N_12 
    2  A    between atoms: C_10  and  N_19 

>  <COMPND>
    /home/daniil/Downloads/ml_docking_review/databases/Vina/outputs/7NR6_UO8/7NR6_UO8.pdbqt 

>  <AUTHOR>
    GENERATED BY OPEN BABEL 3.2.1

>  <MASTER>
        0    0    0    0    0    0    0    0   22    0   22    0

$$$$
