../../databases/Vina/outputs/7OFF_VCB/7OFF_VCB1.pdb
 OpenBabel08242616453D

 28 31  0  0  1  0  0  0  0  0999 V2000
   42.7250  -26.6720   10.5450 C   0  0  0  0  0  0  0  0  0  0  0  0
   39.8150  -27.7910   13.4120 C   0  0  0  0  0  0  0  0  0  0  0  0
   41.0980  -27.5650   13.8930 C   0  0  0  0  0  0  0  0  0  0  0  0
   42.1240  -27.2040   13.0350 C   0  0  0  0  0  0  0  0  0  0  0  0
   40.5450  -27.0420    9.7420 C   0  0  0  0  0  0  0  0  0  0  0  0
   39.5260  -27.1270    8.7910 C   0  0  0  0  0  0  0  0  0  0  0  0
   39.8310  -26.8590    7.4640 C   0  0  0  0  0  0  0  0  0  0  0  0
   41.8430  -27.0530   11.6900 C   0  0  0  0  0  0  0  0  0  0  0  0
   41.1150  -26.4970    7.0880 C   0  0  0  0  0  0  0  0  0  0  0  0
   42.1330  -26.4020    8.0290 C   0  0  0  0  0  0  0  0  0  0  0  0
   41.8330  -26.6780    9.3470 C   0  0  0  0  0  0  0  0  0  0  0  0
   40.5400  -27.2730   11.1930 C   0  0  0  0  0  0  0  0  0  0  0  0
   39.5170  -27.6400   12.0560 C   0  0  0  0  0  0  0  0  0  0  0  0
   43.9130  -26.4190   10.5850 O   0  0  0  0  0  0  0  0  0  0  0  0
   38.1350  -27.8800   11.5340 C   0  0  0  0  0  0  0  0  0  0  0  0
   37.8260  -28.9710   11.0460 O   0  0  0  0  0  0  0  0  0  0  0  0
   37.2850  -26.8260   11.6140 N   0  0  0  0  0  0  0  0  0  0  0  0
   37.6580  -25.9500   11.9830 H   0  0  0  0  0  0  0  0  0  0  0  0
   35.8810  -26.8440   11.2140 C   0  0  2  0  0  0  0  0  0  0  0  0
   35.6210  -26.2770    9.8300 C   0  0  0  0  0  0  0  0  0  0  0  0
   34.3570  -26.3660    9.2770 C   0  0  0  0  0  0  0  0  0  0  0  0
   34.1000  -25.8680    8.0110 C   0  0  0  0  0  0  0  0  0  0  0  0
   35.1170  -25.2880    7.2850 C   0  0  0  0  0  0  0  0  0  0  0  0
   36.3770  -25.1970    7.8250 C   0  0  0  0  0  0  0  0  0  0  0  0
   36.6320  -25.6820    9.0950 C   0  0  0  0  0  0  0  0  0  0  0  0
   35.0760  -26.0250   12.2530 C   0  0  0  0  0  0  0  0  0  0  0  0
   34.2100  -26.6230   12.9080 O   0  0  0  0  0  0  0  0  0  0  0  0
   35.3380  -24.7950   12.3480 O   0  0  0  0  0  0  0  0  0  0  0  0
  1 11  1  0  0  0  0
  1 14  2  0  0  0  0
  1  8  1  0  0  0  0
  2 13  2  0  0  0  0
  2  3  1  0  0  0  0
  3  4  2  0  0  0  0
  4  8  1  0  0  0  0
  5  6  2  0  0  0  0
  5 11  1  0  0  0  0
  5 12  1  0  0  0  0
  6  7  1  0  0  0  0
  7  9  2  0  0  0  0
  8 12  2  0  0  0  0
  9 10  1  0  0  0  0
 10 11  2  0  0  0  0
 12 13  1  0  0  0  0
 13 15  1  0  0  0  0
 15 16  2  0  0  0  0
 15 17  1  0  0  0  0
 17 19  1  0  0  0  0
 17 18  1  0  0  0  0
 19 20  1  0  0  0  0
 19 26  1  1  0  0  0
 20 25  2  0  0  0  0
 20 21  1  0  0  0  0
 21 22  2  0  0  0  0
 22 23  1  0  0  0  0
 23 24  2  0  0  0  0
 24 25  1  0  0  0  0
 26 28  2  0  0  0  0
 26 27  1  0  0  0  0
M  END
>  <MODEL>
1

>  <REMARK>
 VINA RESULT:    -9.738      0.000      0.000
 INTER + INTRA:         -13.155
 INTER:                 -12.016
 INTRA:                  -1.140
 UNBOUND:                -1.140
  4 active torsions:
  status: ('A' for Active; 'I' for Inactive)
    1  A    between atoms: C_5  and  CA_19 
    2  A    between atoms: C_17  and  C_18 
       I    between atoms: C_18  and  N_23 
    3  A    between atoms: CA_19  and  C_20 
    4  A    between atoms: CA_19  and  N_23 

>  <COMPND>
    /home/daniil/Downloads/ml_docking_review/databases/Vina/outputs/7OFF_VCB/7OFF_VCB.pdbqt 

>  <AUTHOR>
    GENERATED BY OPEN BABEL 3.2.1

>  <MASTER>
        0    0    0    0    0    0    0    0   28    0   28    0

$$$$
