../../databases/Vina/outputs/7TH4_FFO/7TH4_FFO1.pdb
 OpenBabel08242616453D

 30 32  0  0  1  0  0  0  0  0999 V2000
   27.1040    5.4110    6.3600 N   0  0  0  0  0  0  0  0  0  0  0  0
   26.9380    5.2300    5.3700 H   0  0  0  0  0  0  0  0  0  0  0  0
   28.3270    5.3910    6.8430 C   0  0  2  0  0  0  0  0  0  0  0  0
   28.5890    5.7480    8.1470 N   0  0  0  0  0  0  0  0  0  0  0  0
   29.5600    5.8270    8.4470 H   0  0  0  0  0  0  0  0  0  0  0  0
   27.5940    6.0020    9.0630 C   0  0  0  0  0  0  0  0  0  0  0  0
   27.9360    6.3580   10.2190 O   0  0  0  0  0  0  0  0  0  0  0  0
   26.2880    5.9120    8.5840 C   0  0  0  0  0  0  0  0  0  0  0  0
   25.1130    6.1070    9.3710 N   0  0  0  0  0  0  0  0  0  0  0  0
   23.9640    6.7720    8.7200 C   0  0  2  0  0  0  0  0  0  0  0  0
   23.6300    6.0070    7.4430 C   0  0  0  0  0  0  0  0  0  0  0  0
   24.8290    5.6800    6.6830 N   0  0  0  0  0  0  0  0  0  0  0  0
   24.7170    5.4380    5.6980 H   0  0  0  0  0  0  0  0  0  0  0  0
   26.0700    5.6740    7.1910 C   0  0  0  0  0  0  0  0  0  0  0  0
   24.2740    8.2380    8.4570 C   0  0  0  0  0  0  0  0  0  0  0  0
   24.7370    8.8860    9.6800 N   0  0  0  0  0  0  0  0  0  0  0  0
   25.1260    8.2940   10.4150 H   0  0  0  0  0  0  0  0  0  0  0  0
   24.6830   10.2550    9.9110 C   0  0  0  0  0  0  0  0  0  0  0  0
   24.8590   10.7020   11.2200 C   0  0  0  0  0  0  0  0  0  0  0  0
   24.7830   12.0420   11.4960 C   0  0  0  0  0  0  0  0  0  0  0  0
   24.5840   12.9640   10.4720 C   0  0  0  0  0  0  0  0  0  0  0  0
   24.4510   12.5120    9.1680 C   0  0  0  0  0  0  0  0  0  0  0  0
   24.4940   11.1690    8.8820 C   0  0  0  0  0  0  0  0  0  0  0  0
   24.5520   14.4470   10.7300 C   0  0  0  0  0  0  0  0  0  0  0  0
   23.5250   14.9670   11.1470 O   0  0  0  0  0  0  0  0  0  0  0  0
   24.9450    5.4260   10.5270 C   0  0  0  0  0  0  0  0  0  0  0  0
   24.9590    4.1750   10.5640 O   0  0  0  0  0  0  0  0  0  0  0  0
   29.3880    5.1500    6.0560 N   0  0  0  0  0  0  0  0  0  0  0  0
   29.9870    5.9060    5.7240 H   0  0  0  0  0  0  0  0  0  0  0  0
   29.6240    4.1720    5.8870 H   0  0  0  0  0  0  0  0  0  0  0  0
  1  2  1  0  0  0  0
  1  3  1  0  0  0  0
  1 14  1  0  0  0  0
  3 28  1  6  0  0  0
  3  4  1  0  0  0  0
  4  5  1  0  0  0  0
  4  6  1  0  0  0  0
  6  8  1  0  0  0  0
  6  7  2  0  0  0  0
  8 14  2  0  0  0  0
  8  9  1  0  0  0  0
  9 10  1  0  0  0  0
  9 26  1  0  0  0  0
 10 11  1  0  0  0  0
 10 15  1  6  0  0  0
 11 12  1  0  0  0  0
 12 13  1  0  0  0  0
 12 14  1  0  0  0  0
 15 16  1  0  0  0  0
 16 18  1  0  0  0  0
 16 17  1  0  0  0  0
 18 23  2  0  0  0  0
 18 19  1  0  0  0  0
 19 20  2  0  0  0  0
 20 21  1  0  0  0  0
 21 22  2  0  0  0  0
 21 24  1  0  0  0  0
 22 23  1  0  0  0  0
 24 25  2  0  0  0  0
 26 27  2  0  0  0  0
 28 29  1  0  0  0  0
 28 30  1  0  0  0  0
M  END
>  <MODEL>
1

>  <REMARK>
 VINA RESULT:    -8.094      0.000      0.000
 INTER + INTRA:         -11.263
 INTER:                 -10.696
 INTRA:                  -0.567
 UNBOUND:                -0.567
  6 active torsions:
  status: ('A' for Active; 'I' for Inactive)
    1  A    between atoms: C_3  and  N_4 
    2  A    between atoms: N_12  and  C_29 
    3  A    between atoms: C_13  and  C_18 
    4  A    between atoms: C_18  and  N_19 
    5  A    between atoms: N_19  and  C_24 
    6  A    between atoms: C_21  and  C_27 

>  <COMPND>
    /home/daniil/Downloads/ml_docking_review/databases/Vina/outputs/7TH4_FFO/7TH4_FFO.pdbqt 

>  <AUTHOR>
    GENERATED BY OPEN BABEL 3.2.1

>  <MASTER>
        0    0    0    0    0    0    0    0   30    0   30    0

$$$$
