../../databases/Vina/outputs/6YT6_PKE/6YT6_PKE1.pdb
 OpenBabel08242616453D

 37 40  0  0  1  0  0  0  0  0999 V2000
   -0.2160    7.0910  -21.7270 C   0  0  2  0  0  0  0  0  0  0  0  0
    0.5550    6.3530  -20.9110 N   0  0  0  0  0  0  0  0  0  0  0  0
    1.4350    5.9420  -21.2240 H   0  0  0  0  0  0  0  0  0  0  0  0
   -1.3810    7.6740  -21.4100 N   0  0  0  0  0  0  0  0  0  0  0  0
   -1.9120    8.2290  -22.0810 H   0  0  0  0  0  0  0  0  0  0  0  0
   -1.7980    7.4790  -20.1530 C   0  0  0  0  0  0  0  0  0  0  0  0
   -1.0990    6.7420  -19.2240 C   0  0  0  0  0  0  0  0  0  0  0  0
    0.0990    6.1890  -19.6610 C   0  0  0  0  0  0  0  0  0  0  0  0
    0.8600    5.4520  -18.8090 N   0  0  0  0  0  0  0  0  0  0  0  0
    0.4370    4.6380  -18.3630 H   0  0  0  0  0  0  0  0  0  0  0  0
    2.2440    5.7650  -18.5030 C   0  0  0  0  0  0  0  0  0  0  0  0
    3.2490    4.8580  -19.1700 C   0  0  0  0  0  0  0  0  0  0  0  0
    3.0640    4.3590  -20.4560 C   0  0  0  0  0  0  0  0  0  0  0  0
    4.0090    3.5180  -21.0190 C   0  0  0  0  0  0  0  0  0  0  0  0
    5.1290    3.1940  -20.2850 C   0  0  0  0  0  0  0  0  0  0  0  0
    5.3630    3.6480  -19.0470 N   0  0  0  0  0  0  0  0  0  0  0  0
    4.4300    4.4550  -18.5250 C   0  0  0  0  0  0  0  0  0  0  0  0
    6.2040    3.3920  -18.5300 H   0  0  0  0  0  0  0  0  0  0  0  0
    4.6690    4.9320  -17.1860 N   0  0  0  0  0  0  0  0  0  0  0  0
    4.6600    3.9190  -16.1250 C   0  0  0  0  0  0  0  0  0  0  0  0
    5.6660    6.2080  -17.0010 S   0  0  0  0  0  0  0  0  0  0  0  0
    6.7160    5.8530  -15.6430 C   0  0  0  0  0  0  0  0  0  0  0  0
    4.8430    7.3210  -16.6550 O   0  0  0  0  0  0  0  0  0  0  0  0
    6.4610    6.2800  -18.1820 O   0  0  0  0  0  0  0  0  0  0  0  0
    0.1400    7.2910  -23.0250 N   0  0  0  0  0  0  0  0  0  0  0  0
   -0.5100    7.8980  -23.5240 H   0  0  0  0  0  0  0  0  0  0  0  0
    1.2030    6.8480  -23.8340 C   0  0  0  0  0  0  0  0  0  0  0  0
    0.9250    6.4550  -25.1410 C   0  0  0  0  0  0  0  0  0  0  0  0
    1.9500    5.9930  -25.9540 C   0  0  0  0  0  0  0  0  0  0  0  0
    3.2440    5.9300  -25.4550 C   0  0  0  0  0  0  0  0  0  0  0  0
    1.9710    5.5040  -27.3700 C   0  0  0  0  0  0  0  0  0  0  0  0
    3.5390    6.3230  -24.1560 C   0  0  0  0  0  0  0  0  0  0  0  0
    4.0920    5.4120  -26.4360 N   0  0  0  0  0  0  0  0  0  0  0  0
    2.5090    6.7820  -23.3500 C   0  0  0  0  0  0  0  0  0  0  0  0
    3.4190    5.1210  -27.5790 C   0  0  0  0  0  0  0  0  0  0  0  0
    5.0940    5.2700  -26.3100 H   0  0  0  0  0  0  0  0  0  0  0  0
    3.9090    4.6150  -28.5820 O   0  0  0  0  0  0  0  0  0  0  0  0
  1 25  1  6  0  0  0
  1  4  1  0  0  0  0
  1  2  1  0  0  0  0
  2  3  1  0  0  0  0
  2  8  1  0  0  0  0
  4  5  1  0  0  0  0
  4  6  1  0  0  0  0
  6  7  1  0  0  0  0
  7  8  2  0  0  0  0
  8  9  1  0  0  0  0
  9 11  1  0  0  0  0
  9 10  1  0  0  0  0
 11 12  1  0  0  0  0
 12 13  1  0  0  0  0
 12 17  2  0  0  0  0
 13 14  2  0  0  0  0
 14 15  1  0  0  0  0
 15 16  1  0  0  0  0
 16 18  1  0  0  0  0
 16 17  1  0  0  0  0
 17 19  1  0  0  0  0
 19 21  1  0  0  0  0
 19 20  1  0  0  0  0
 21 24  2  0  0  0  0
 21 23  2  0  0  0  0
 21 22  1  0  0  0  0
 25 27  1  0  0  0  0
 25 26  1  0  0  0  0
 27 28  2  0  0  0  0
 27 34  1  0  0  0  0
 28 29  1  0  0  0  0
 29 31  1  0  0  0  0
 29 30  2  0  0  0  0
 30 33  1  0  0  0  0
 30 32  1  0  0  0  0
 31 35  1  0  0  0  0
 32 34  2  0  0  0  0
 33 35  1  0  0  0  0
 33 36  1  0  0  0  0
 35 37  2  0  0  0  0
M  END
>  <MODEL>
1

>  <REMARK>
 VINA RESULT:    -9.373      0.000      0.000
 INTER + INTRA:         -14.373
 INTER:                 -13.208
 INTRA:                  -1.165
 UNBOUND:                -1.165
  7 active torsions:
  status: ('A' for Active; 'I' for Inactive)
    1  A    between atoms: C_1  and  N_21 
    2  A    between atoms: C_2  and  C_3 
    3  A    between atoms: C_2  and  N_19 
    4  A    between atoms: C_7  and  N_25 
    5  A    between atoms: C_9  and  N_21 
    6  A    between atoms: C_18  and  N_19 
    7  A    between atoms: N_25  and  S_26 

>  <COMPND>
    /home/daniil/Downloads/ml_docking_review/databases/Vina/outputs/6YT6_PKE/6YT6_PKE.pdbqt 

>  <AUTHOR>
    GENERATED BY OPEN BABEL 3.2.1

>  <MASTER>
        0    0    0    0    0    0    0    0   37    0   37    0

$$$$
