../../databases/Vina/outputs/7RKW_5TV/7RKW_5TV1.pdb
 OpenBabel08242616453D

 26 28  0  0  1  0  0  0  0  0999 V2000
   18.4600   -6.9540   17.4550 C   0  0  1  0  0  0  0  0  0  0  0  0
   17.5310   -7.7460   16.5560 C   0  0  0  0  0  0  0  0  0  0  0  0
   17.2700   -7.5060   15.2110 C   0  0  0  0  0  0  0  0  0  0  0  0
   16.3520   -8.2760   14.5070 C   0  0  0  0  0  0  0  0  0  0  0  0
   15.7480   -9.3070   15.1860 C   0  0  0  0  0  0  0  0  0  0  0  0
   14.8360  -10.1410   14.6770 F   0  0  0  0  0  0  0  0  0  0  0  0
   15.9670   -9.5570   16.5110 C   0  0  0  0  0  0  0  0  0  0  0  0
   16.8400   -8.7690   17.1850 C   0  0  0  0  0  0  0  0  0  0  0  0
   17.5480   -5.8970   18.0630 C   0  0  0  0  0  0  0  0  0  0  0  0
   18.3590   -4.6860   18.3950 N   0  0  0  0  0  0  0  0  0  0  0  0
   19.0360   -3.8220   17.5320 C   0  0  0  0  0  0  0  0  0  0  0  0
   19.6670   -2.8380   18.1700 N   0  0  0  0  0  0  0  0  0  0  0  0
   19.3560   -3.0740   19.5070 C   0  0  0  0  0  0  0  0  0  0  0  0
   20.2390   -2.0910   17.7740 H   0  0  0  0  0  0  0  0  0  0  0  0
   18.5470   -4.1970   19.6550 C   0  0  0  0  0  0  0  0  0  0  0  0
   19.0650   -7.7520   18.2700 O   0  0  0  0  0  0  0  0  0  0  0  0
   20.3970   -7.6050   18.4180 C   0  0  0  0  0  0  0  0  0  0  0  0
   21.0580   -6.9140   17.6760 O   0  0  0  0  0  0  0  0  0  0  0  0
   20.9710   -8.4150   19.5140 C   0  0  0  0  0  0  0  0  0  0  0  0
   20.1840   -9.2190   20.3090 C   0  0  0  0  0  0  0  0  0  0  0  0
   20.7740  -10.0130   21.2870 C   0  0  0  0  0  0  0  0  0  0  0  0
   19.7940  -11.0020   22.3110 Cl  0  0  0  0  0  0  0  0  0  0  0  0
   22.1250   -9.9880   21.5450 C   0  0  0  0  0  0  0  0  0  0  0  0
   22.8720   -9.1610   20.7790 C   0  0  0  0  0  0  0  0  0  0  0  0
   24.5720   -9.1570   21.0530 Cl  0  0  0  0  0  0  0  0  0  0  0  0
   22.3240   -8.4020   19.7650 C   0  0  0  0  0  0  0  0  0  0  0  0
  1  2  1  0  0  0  0
  1  9  1  1  0  0  0
  1 16  1  0  0  0  0
  2  3  2  0  0  0  0
  2  8  1  0  0  0  0
  3  4  1  0  0  0  0
  4  5  2  0  0  0  0
  5  6  1  0  0  0  0
  5  7  1  0  0  0  0
  7  8  2  0  0  0  0
  9 10  1  0  0  0  0
 10 11  1  0  0  0  0
 10 15  1  0  0  0  0
 11 12  1  0  0  0  0
 12 14  1  0  0  0  0
 12 13  1  0  0  0  0
 13 15  2  0  0  0  0
 16 17  1  0  0  0  0
 17 18  2  0  0  0  0
 17 19  1  0  0  0  0
 19 26  2  0  0  0  0
 19 20  1  0  0  0  0
 20 21  2  0  0  0  0
 21 23  1  0  0  0  0
 21 22  1  0  0  0  0
 23 24  2  0  0  0  0
 24 26  1  0  0  0  0
 24 25  1  0  0  0  0
M  END
>  <MODEL>
1

>  <REMARK>
 VINA RESULT:   -10.170      0.000      0.000
 INTER + INTRA:         -14.796
 INTER:                 -13.737
 INTRA:                  -1.059
 UNBOUND:                -1.059
  6 active torsions:
  status: ('A' for Active; 'I' for Inactive)
    1  A    between atoms: C_1  and  C_9 
    2  A    between atoms: C_2  and  O_10 
    3  A    between atoms: C_2  and  C_12 
    4  A    between atoms: C_9  and  C_20 
    5  A    between atoms: C_9  and  O_10 
    6  A    between atoms: C_20  and  N_21 

>  <COMPND>
    /home/daniil/Downloads/ml_docking_review/databases/Vina/outputs/7RKW_5TV/7RKW_5TV.pdbqt 

>  <AUTHOR>
    GENERATED BY OPEN BABEL 3.2.1

>  <MASTER>
        0    0    0    0    0    0    0    0   26    0   26    0

$$$$
