../../databases/Vina/outputs/7UMV_NUU/7UMV_NUU1.pdb
 OpenBabel08242616453D

 25 27  0  0  1  0  0  0  0  0999 V2000
  -31.6650    2.0940  -12.0650 C   0  0  0  0  0  0  0  0  0  0  0  0
  -33.5080    3.7430  -12.9600 C   0  0  1  0  0  0  0  0  0  0  0  0
  -35.5620    4.7830  -13.4560 C   0  0  0  0  0  0  0  0  0  0  0  0
  -33.4380    4.4420  -11.7250 C   0  0  0  0  0  0  0  0  0  0  0  0
  -32.2300    4.2890  -10.9170 C   0  0  1  0  0  0  0  0  0  0  0  0
  -30.7700    5.2120   -9.3070 C   0  0  1  0  0  0  0  0  0  0  0  0
  -30.1470    3.1550  -10.2790 C   0  0  0  0  0  0  0  0  0  0  0  0
  -31.3520    3.1890  -11.0840 C   0  0  0  0  0  0  0  0  0  0  0  0
  -32.3700    2.7310  -13.3390 C   0  0  0  0  0  0  0  0  0  0  0  0
  -35.5420    5.5530  -12.2750 C   0  0  0  0  0  0  0  0  0  0  0  0
  -34.4490    5.4190  -11.3650 C   0  0  0  0  0  0  0  0  0  0  0  0
  -29.9050    4.1970   -9.4260 N   0  0  0  0  0  0  0  0  0  0  0  0
  -29.0500    4.2000   -8.8690 H   0  0  0  0  0  0  0  0  0  0  0  0
  -34.5610    3.9030  -13.8220 N   0  0  0  0  0  0  0  0  0  0  0  0
  -34.6040    3.3910  -14.7020 H   0  0  0  0  0  0  0  0  0  0  0  0
  -31.9440    5.3200   -9.9850 N   0  0  0  0  0  0  0  0  0  0  0  0
  -32.5850    6.0990   -9.8310 H   0  0  0  0  0  0  0  0  0  0  0  0
  -30.4720    6.5200   -8.1700 S   0  0  0  0  0  0  0  0  0  0  0  0
  -31.8750    7.6190   -8.1780 C   0  0  0  0  0  0  0  0  0  0  0  0
  -33.1600    7.1460   -7.5890 C   0  0  0  0  0  0  0  0  0  0  0  0
  -33.1880    5.9760   -7.0950 O   0  0  0  0  0  0  0  0  0  0  0  0
  -34.3890    7.9630   -7.3760 C   0  0  0  0  0  0  0  0  0  0  0  0
  -34.3930    9.2990   -8.1610 C   0  0  0  0  0  0  0  0  0  0  0  0
  -34.5450    8.2770   -5.8280 C   0  0  0  0  0  0  0  0  0  0  0  0
  -35.5580    7.0090   -7.8470 C   0  0  0  0  0  0  0  0  0  0  0  0
  1  9  1  0  0  0  0
  1  8  1  0  0  0  0
  2 14  1  0  0  0  0
  2  9  1  1  0  0  0
  2  4  1  0  0  0  0
  3 14  1  0  0  0  0
  3 10  2  0  0  0  0
  4 11  2  0  0  0  0
  5  4  1  6  0  0  0
  5  8  1  0  0  0  0
  5 16  1  0  0  0  0
  6 16  1  0  0  0  0
  6 12  1  0  0  0  0
  6 18  1  1  0  0  0
  7  8  2  0  0  0  0
  7 12  1  0  0  0  0
 10 11  1  0  0  0  0
 12 13  1  0  0  0  0
 14 15  1  0  0  0  0
 16 17  1  0  0  0  0
 18 19  1  0  0  0  0
 19 20  1  0  0  0  0
 20 22  1  0  0  0  0
 20 21  2  0  0  0  0
 22 23  1  0  0  0  0
 22 25  1  0  0  0  0
 22 24  1  0  0  0  0
M  END
>  <MODEL>
1

>  <REMARK>
 VINA RESULT:    -7.605      0.000      0.000
 INTER + INTRA:          -9.898
 INTER:                  -9.384
 INTRA:                  -0.514
 UNBOUND:                -0.514
  4 active torsions:
  status: ('A' for Active; 'I' for Inactive)
    1  A    between atoms: C_7  and  C_10 
    2  A    between atoms: C_10  and  C_11 
    3  A    between atoms: C_11  and  S_25 
    4  A    between atoms: C_12  and  S_25 

>  <COMPND>
    /home/daniil/Downloads/ml_docking_review/databases/Vina/outputs/7UMV_NUU/7UMV_NUU.pdbqt 

>  <AUTHOR>
    GENERATED BY OPEN BABEL 3.2.1

>  <MASTER>
        0    0    0    0    0    0    0    0   25    0   25    0

$$$$
