../../databases/Vina/outputs/7BTT_F8R/7BTT_F8R1.pdb
 OpenBabel08242616453D

 45 49  0  0  1  0  0  0  0  0999 V2000
    3.7540   17.3490    7.7800 N   0  0  0  0  0  0  0  0  0  0  0  0
    3.7550   17.8510    6.8910 H   0  0  0  0  0  0  0  0  0  0  0  0
    2.7970   17.5800    8.6720 C   0  0  1  0  0  0  0  0  0  0  0  0
    4.7080   16.4660    8.0460 C   0  0  2  0  0  0  0  0  0  0  0  0
    3.7070   16.0760   10.1780 C   0  0  0  0  0  0  0  0  0  0  0  0
    4.7060   15.7980    9.2830 C   0  0  0  0  0  0  0  0  0  0  0  0
    5.0870   14.5450   11.0440 C   0  0  0  0  0  0  0  0  0  0  0  0
    3.9480   15.2750   11.3040 C   0  0  0  0  0  0  0  0  0  0  0  0
    2.7600   16.9690    9.8360 N   0  0  0  0  0  0  0  0  0  0  0  0
    2.0040   17.1750   10.4890 H   0  0  0  0  0  0  0  0  0  0  0  0
    5.5280   14.8660    9.8350 N   0  0  0  0  0  0  0  0  0  0  0  0
    6.3570   14.4730    9.3880 H   0  0  0  0  0  0  0  0  0  0  0  0
    1.7400   18.5450    8.4240 N   0  0  0  0  0  0  0  0  0  0  0  0
    0.8720   18.4450    8.9500 H   0  0  0  0  0  0  0  0  0  0  0  0
    1.8340   19.6330    7.4840 C   0  0  0  0  0  0  0  0  0  0  0  0
    0.6520   20.0940    6.9040 C   0  0  0  0  0  0  0  0  0  0  0  0
    0.7010   21.1330    5.9860 C   0  0  0  0  0  0  0  0  0  0  0  0
    1.9360   21.7090    5.6580 C   0  0  0  0  0  0  0  0  0  0  0  0
    2.3430   22.8290    4.7070 C   0  0  0  0  0  0  0  0  0  0  0  0
    3.0890   21.2480    6.2550 C   0  0  0  0  0  0  0  0  0  0  0  0
    3.8010   22.5690    4.4640 C   0  0  0  0  0  0  0  0  0  0  0  0
    4.2360   22.0140    5.7260 N   0  0  0  0  0  0  0  0  0  0  0  0
    5.5220   22.1850    6.3370 C   0  0  0  0  0  0  0  0  0  0  0  0
    5.7630   21.6970    7.3740 O   0  0  0  0  0  0  0  0  0  0  0  0
    3.0540   20.1980    7.1770 C   0  0  0  0  0  0  0  0  0  0  0  0
   -0.5490   19.4890    7.2640 O   0  0  0  0  0  0  0  0  0  0  0  0
   -1.6060   19.6200    6.3570 C   0  0  0  0  0  0  0  0  0  0  0  0
    6.5500   23.0160    5.5820 C   0  0  0  0  0  0  0  0  0  0  0  0
    7.5000   22.2110    4.8530 N   0  0  0  0  0  0  0  0  0  0  0  0
    7.3530   22.3350    3.4230 C   0  0  0  0  0  0  0  0  0  0  0  0
    8.8420   22.5620    5.2660 C   0  0  0  0  0  0  0  0  0  0  0  0
    5.7900   16.1490    7.1310 N   0  0  0  0  0  0  0  0  0  0  0  0
    6.0330   15.1640    7.0270 H   0  0  0  0  0  0  0  0  0  0  0  0
    6.5530   17.0950    6.3540 C   0  0  0  0  0  0  0  0  0  0  0  0
    5.9850   17.8270    5.3370 C   0  0  0  0  0  0  0  0  0  0  0  0
    6.7600   18.7150    4.6150 C   0  0  0  0  0  0  0  0  0  0  0  0
    8.0990   18.8680    4.8930 C   0  0  0  0  0  0  0  0  0  0  0  0
    8.6650   18.1330    5.9130 C   0  0  0  0  0  0  0  0  0  0  0  0
    7.9030   17.2450    6.6370 C   0  0  0  0  0  0  0  0  0  0  0  0
    8.6530   16.2940    7.9860 S   0  0  0  0  0  0  0  0  0  0  0  0
    8.2010   14.9420    8.0170 O   0  0  0  0  0  0  0  0  0  0  0  0
   10.0650   16.1320    7.8280 O   0  0  0  0  0  0  0  0  0  0  0  0
    8.2900   17.1680    9.5320 C   0  0  0  0  0  0  0  0  0  0  0  0
    8.6760   18.6320    9.3880 C   0  0  0  0  0  0  0  0  0  0  0  0
    8.9820   16.4640   10.6940 C   0  0  0  0  0  0  0  0  0  0  0  0
  1  2  1  0  0  0  0
  1  4  1  0  0  0  0
  1  3  1  0  0  0  0
  3 13  1  1  0  0  0
  3  9  1  0  0  0  0
  4 32  1  1  0  0  0
  4  6  1  0  0  0  0
  5  6  2  0  0  0  0
  5  9  1  0  0  0  0
  5  8  1  0  0  0  0
  6 11  1  0  0  0  0
  7 11  1  0  0  0  0
  7  8  2  0  0  0  0
  9 10  1  0  0  0  0
 11 12  1  0  0  0  0
 13 15  1  0  0  0  0
 13 14  1  0  0  0  0
 15 16  2  0  0  0  0
 15 25  1  0  0  0  0
 16 17  1  0  0  0  0
 16 26  1  0  0  0  0
 17 18  2  0  0  0  0
 18 19  1  0  0  0  0
 18 20  1  0  0  0  0
 19 21  1  0  0  0  0
 20 22  1  0  0  0  0
 20 25  2  0  0  0  0
 21 22  1  0  0  0  0
 22 23  1  0  0  0  0
 23 28  1  0  0  0  0
 23 24  2  0  0  0  0
 26 27  1  0  0  0  0
 28 29  1  0  0  0  0
 29 30  1  0  0  0  0
 29 31  1  0  0  0  0
 32 34  1  0  0  0  0
 32 33  1  0  0  0  0
 34 35  2  0  0  0  0
 34 39  1  0  0  0  0
 35 36  1  0  0  0  0
 36 37  2  0  0  0  0
 37 38  1  0  0  0  0
 38 39  2  0  0  0  0
 39 40  1  0  0  0  0
 40 42  2  0  0  0  0
 40 41  2  0  0  0  0
 40 43  1  0  0  0  0
 43 44  1  0  0  0  0
 43 45  1  0  0  0  0
M  END
>  <MODEL>
1

>  <REMARK>
 VINA RESULT:    -9.268      0.000      0.000
 INTER + INTRA:         -16.473
 INTER:                 -14.145
 INTRA:                  -2.328
 UNBOUND:                -2.328
  9 active torsions:
  status: ('A' for Active; 'I' for Inactive)
    1  A    between atoms: C_3  and  N_33 
    2  A    between atoms: C_4  and  N_33 
    3  A    between atoms: C_6  and  O_41 
       I    between atoms: C_9  and  N_35 
    4  A    between atoms: C_9  and  C_23 
    5  A    between atoms: C_11  and  S_45 
    6  A    between atoms: C_12  and  S_45 
    7  A    between atoms: C_17  and  N_31 
    8  A    between atoms: C_18  and  N_31 
    9  A    between atoms: C_23  and  N_36 

>  <COMPND>
    /home/daniil/Downloads/ml_docking_review/databases/Vina/outputs/7BTT_F8R/7BTT_F8R.pdbqt 

>  <AUTHOR>
    GENERATED BY OPEN BABEL 3.2.1

>  <MASTER>
        0    0    0    0    0    0    0    0   45    0   45    0

$$$$
