../../databases/Vina/outputs/7F51_BA7/7F51_BA71.pdb
 OpenBabel08242616453D

 53 57  0  0  1  0  0  0  0  0999 V2000
   -1.3480    7.8250   10.9600 O   0  0  0  0  0  0  0  0  0  0  0  0
   -3.5350    9.1760   10.7160 O   0  0  0  0  0  0  0  0  0  0  0  0
   -2.7910    7.8810   10.6700 P   0  0  2  0  0  0  0  0  0  0  0  0
   -3.5770    6.9830   11.7210 O   0  0  0  0  0  0  0  0  0  0  0  0
   -2.9240    5.9770   12.5060 C   0  0  0  0  0  0  0  0  0  0  0  0
   -3.8000    5.6990   13.7270 C   0  0  1  0  0  0  0  0  0  0  0  0
   -3.0870    4.7630   14.5830 O   0  0  0  0  0  0  0  0  0  0  0  0
   -3.3240    5.1830   15.9710 C   0  0  2  0  0  0  0  0  0  0  0  0
   -3.2180    6.6850   15.8410 C   0  0  1  0  0  0  0  0  0  0  0  0
   -4.0110    6.9560   14.5420 C   0  0  2  0  0  0  0  0  0  0  0  0
   -2.0290    4.5650   16.5130 N   0  0  1  0  0  0  0  0  0  0  0  0
   -1.9360    3.2480   16.7660 C   0  0  2  0  0  0  0  0  0  0  0  0
   -2.9040    2.2970   16.7340 N   0  0  0  0  0  0  0  0  0  0  0  0
   -0.6830    2.9590   17.1370 C   0  0  0  0  0  0  0  0  0  0  0  0
   -2.6060    1.0060   17.1050 C   0  0  0  0  0  0  0  0  0  0  0  0
   -3.8490    2.5390   16.4370 H   0  0  0  0  0  0  0  0  0  0  0  0
   -1.2960    0.7060   17.4680 N   0  0  0  0  0  0  0  0  0  0  0  0
   -0.3940    1.6800   17.4860 C   0  0  0  0  0  0  0  0  0  0  0  0
   -1.0320   -0.2480   17.7150 H   0  0  0  0  0  0  0  0  0  0  0  0
    0.0230    4.1290   17.0690 N   0  0  0  0  0  0  0  0  0  0  0  0
   -0.8080    5.0960   16.6470 C   0  0  0  0  0  0  0  0  0  0  0  0
    1.0110    4.2470   17.2990 H   0  0  0  0  0  0  0  0  0  0  0  0
    0.8350    1.3710   17.8430 N   0  0  0  0  0  0  0  0  0  0  0  0
    0.9900    0.5770   18.4640 H   0  0  0  0  0  0  0  0  0  0  0  0
    1.5930    1.9560   17.4910 H   0  0  0  0  0  0  0  0  0  0  0  0
   -3.8790    7.2370   16.9670 O   0  0  0  0  0  0  0  0  0  0  0  0
   -3.3330    7.1870   17.7420 H   0  0  0  0  0  0  0  0  0  0  0  0
   -5.4010    7.0560   14.7970 O   0  0  0  0  0  0  0  0  0  0  0  0
   -5.6600    6.5010   15.5220 H   0  0  0  0  0  0  0  0  0  0  0  0
   -2.8830    7.1120    9.2370 O   0  0  0  0  0  0  0  0  0  0  0  0
   -3.9920    6.1040    8.7790 P   0  0  1  0  0  0  0  0  0  0  0  0
   -3.6400    4.7460    9.3710 O   0  0  0  0  0  0  0  0  0  0  0  0
   -5.3220    6.7020    9.0620 O   0  0  0  0  0  0  0  0  0  0  0  0
   -3.6480    5.9790    7.2000 O   0  0  0  0  0  0  0  0  0  0  0  0
   -4.5140    6.4860    6.1570 C   0  0  0  0  0  0  0  0  0  0  0  0
   -3.6160    6.9210    4.9950 C   0  0  1  0  0  0  0  0  0  0  0  0
   -3.1670    8.2190    5.3590 O   0  0  0  0  0  0  0  0  0  0  0  0
   -1.9660    8.4460    4.4790 C   0  0  2  0  0  0  0  0  0  0  0  0
   -1.3330    7.0710    4.2250 C   0  0  1  0  0  0  0  0  0  0  0  0
   -2.3060    6.1430    5.0240 C   0  0  2  0  0  0  0  0  0  0  0  0
   -1.0030    9.3030    5.0610 O   0  0  0  0  0  0  0  0  0  0  0  0
   -1.1180   10.1810    4.7200 H   0  0  0  0  0  0  0  0  0  0  0  0
   -1.3600    6.8700    2.8190 O   0  0  0  0  0  0  0  0  0  0  0  0
   -0.1580    6.4860    2.3100 C   0  0  0  0  0  0  0  0  0  0  0  0
    0.8250    6.2830    3.0100 O   0  0  0  0  0  0  0  0  0  0  0  0
   -0.0930    6.2320    0.9410 C   0  0  0  0  0  0  0  0  0  0  0  0
    0.8180    5.3070    0.4700 C   0  0  0  0  0  0  0  0  0  0  0  0
    0.8960    5.0340   -0.8910 C   0  0  0  0  0  0  0  0  0  0  0  0
    0.0780    5.7060   -1.7650 C   0  0  0  0  0  0  0  0  0  0  0  0
   -0.8560    6.6660   -1.3100 C   0  0  0  0  0  0  0  0  0  0  0  0
   -0.9290    6.9270    0.0720 C   0  0  0  0  0  0  0  0  0  0  0  0
   -2.4170    4.9220    4.3600 O   0  0  0  0  0  0  0  0  0  0  0  0
   -1.8950    4.9510    3.5670 H   0  0  0  0  0  0  0  0  0  0  0  0
  2  3  2  0  0  0  0
  3  1  1  1  0  0  0
  3 30  1  0  0  0  0
  3  4  1  0  0  0  0
  4  5  1  0  0  0  0
  6  5  1  6  0  0  0
  6 10  1  0  0  0  0
  6  7  1  0  0  0  0
  8  7  1  6  0  0  0
  8  9  1  0  0  0  0
  8 11  1  0  0  0  0
  9 10  1  0  0  0  0
  9 26  1  1  0  0  0
 10 28  1  1  0  0  0
 11 21  1  6  0  0  0
 11 12  1  0  0  0  0
 12 13  1  0  0  0  0
 12 14  1  1  0  0  0
 13 16  1  0  0  0  0
 13 15  1  0  0  0  0
 14 20  1  0  0  0  0
 14 18  2  0  0  0  0
 15 17  1  0  0  0  0
 17 18  1  0  0  0  0
 17 19  1  0  0  0  0
 18 23  1  0  0  0  0
 20 21  1  0  0  0  0
 20 22  1  0  0  0  0
 23 25  1  0  0  0  0
 23 24  1  0  0  0  0
 26 27  1  0  0  0  0
 28 29  1  0  0  0  0
 30 31  1  0  0  0  0
 31 34  1  0  0  0  0
 31 33  2  1  0  0  0
 31 32  1  0  0  0  0
 34 35  1  0  0  0  0
 36 35  1  1  0  0  0
 36 40  1  0  0  0  0
 36 37  1  0  0  0  0
 37 38  1  0  0  0  0
 38 39  1  0  0  0  0
 38 41  1  1  0  0  0
 39 43  1  6  0  0  0
 39 40  1  0  0  0  0
 40 52  1  6  0  0  0
 41 42  1  0  0  0  0
 43 44  1  0  0  0  0
 44 46  1  0  0  0  0
 44 45  2  0  0  0  0
 46 51  2  0  0  0  0
 46 47  1  0  0  0  0
 47 48  2  0  0  0  0
 48 49  1  0  0  0  0
 49 50  2  0  0  0  0
 50 51  1  0  0  0  0
 52 53  1  0  0  0  0
M  END
>  <MODEL>
1

>  <REMARK>
 VINA RESULT:   -11.804      0.000      0.000
 INTER + INTRA:         -23.731
 INTER:                 -21.811
 INTRA:                  -1.920
 UNBOUND:                -1.920
  17 active torsions:
  status: ('A' for Active; 'I' for Inactive)
    1  A    between atoms: C_1  and  C_19 
    2  A    between atoms: C_2  and  N_32 
    3  A    between atoms: C_5  and  O_35 
    4  A    between atoms: C_7  and  O_37 
    5  A    between atoms: C_8  and  O_41 
    6  A    between atoms: C_10  and  O_42 
    7  A    between atoms: C_11  and  O_45 
    8  A    between atoms: C_13  and  C_16 
    9  A    between atoms: C_14  and  C_17 
   10  A    between atoms: C_16  and  O_49 
   11  A    between atoms: C_17  and  O_50 
   12  A    between atoms: C_18  and  N_27 
   13  A    between atoms: C_19  and  O_41 
   14  A    between atoms: O_44  and  P_52 
   15  A    between atoms: O_44  and  P_53 
   16  A    between atoms: O_49  and  P_52 
   17  A    between atoms: O_50  and  P_53 

>  <COMPND>
    /home/daniil/Downloads/ml_docking_review/databases/Vina/outputs/7F51_BA7/7F51_BA7.pdbqt 

>  <AUTHOR>
    GENERATED BY OPEN BABEL 3.2.1

>  <MASTER>
        0    0    0    0    0    0    0    0   53    0   53    0

$$$$
