../../databases/Vina/outputs/7N7B_T3F/7N7B_T3F1.pdb
 OpenBabel08242616453D

 42 44  0  0  1  0  0  0  0  0999 V2000
   46.7460  -15.5920    6.9700 P   0  0  1  0  0  0  0  0  0  0  0  0
   47.4600  -16.5080    6.0270 O   0  0  0  0  0  0  0  0  0  0  0  0
   47.3790  -14.3840    7.5870 O   0  0  0  0  0  0  0  0  0  0  0  0
   45.4860  -15.1400    6.1000 O   0  0  0  0  0  0  0  0  0  0  0  0
   44.0810  -14.4450    6.3410 P   0  0  1  0  0  0  0  0  0  0  0  0
   43.0410  -15.4130    5.8820 O   0  0  0  0  0  0  0  0  0  0  0  0
   44.0520  -13.8390    7.7200 O   0  0  0  0  0  0  0  0  0  0  0  0
   44.1620  -13.3040    5.2200 O   0  0  0  0  0  0  0  0  0  0  0  0
   44.2580  -11.9340    5.5280 C   0  0  2  0  0  0  0  0  0  0  0  0
   43.8280  -11.1780    4.2890 C   0  0  1  0  0  0  0  0  0  0  0  0
   44.8850  -11.1780    3.1960 C   0  0  2  0  0  0  0  0  0  0  0  0
   46.2790  -10.8520    3.7570 C   0  0  2  0  0  0  0  0  0  0  0  0
   46.5820  -11.7400    4.9490 C   0  0  1  0  0  0  0  0  0  0  0  0
   47.8910  -11.4100    5.6250 C   0  0  0  0  0  0  0  0  0  0  0  0
   45.5520  -11.5370    5.9470 O   0  0  0  0  0  0  0  0  0  0  0  0
   42.6280  -11.7590    3.8100 O   0  0  0  0  0  0  0  0  0  0  0  0
   42.8120  -12.3400    3.0810 H   0  0  0  0  0  0  0  0  0  0  0  0
   44.4860  -10.2240    2.1470 N   0  0  0  0  0  4  0  0  0  0  0  0
   43.7390  -10.5860    1.5550 H   0  0  0  0  0  0  0  0  0  0  0  0
   43.9900   -9.4160    2.5240 H   0  0  0  0  0  0  0  0  0  0  0  0
   45.3120   -9.9580    1.6110 H   0  0  0  0  0  0  0  0  0  0  0  0
   46.3290   -9.4860    4.1840 O   0  0  0  0  0  0  0  0  0  0  0  0
   45.5910   -9.0240    3.8050 H   0  0  0  0  0  0  0  0  0  0  0  0
   46.0650  -16.4790    8.0930 O   0  0  0  0  0  0  0  0  0  0  0  0
   45.5480  -17.7330    7.6940 C   0  0  0  0  0  0  0  0  0  0  0  0
   44.4950  -18.1300    8.6970 C   0  0  1  0  0  0  0  0  0  0  0  0
   45.0610  -19.0680    9.6440 O   0  0  0  0  0  0  0  0  0  0  0  0
   44.3940  -18.9410   10.8880 C   0  0  2  0  0  0  0  0  0  0  0  0
   43.3650  -17.8130   10.7140 C   0  0  0  0  0  0  0  0  0  0  0  0
   43.9370  -17.0000    9.5520 C   0  0  2  0  0  0  0  0  0  0  0  0
   45.4070  -18.6710   11.9190 N   0  0  0  0  0  0  0  0  0  0  0  0
   45.1420  -19.0990   13.2030 C   0  0  0  0  0  0  0  0  0  0  0  0
   44.1160  -19.6790   13.5100 O   0  0  0  0  0  0  0  0  0  0  0  0
   46.0890  -18.7680   14.1290 N   0  0  0  0  0  0  0  0  0  0  0  0
   47.2680  -18.0840   13.9130 C   0  0  0  0  0  0  0  0  0  0  0  0
   45.9030  -19.0590   15.0890 H   0  0  0  0  0  0  0  0  0  0  0  0
   47.4970  -17.6740   12.5400 C   0  0  0  0  0  0  0  0  0  0  0  0
   48.0100  -17.8480   14.8640 O   0  0  0  0  0  0  0  0  0  0  0  0
   46.5610  -17.9770   11.6290 C   0  0  0  0  0  0  0  0  0  0  0  0
   48.7440  -16.9120   12.2070 C   0  0  0  0  0  0  0  0  0  0  0  0
   42.9680  -16.2350    8.8240 O   0  0  0  0  0  0  0  0  0  0  0  0
   43.3900  -15.6700    8.1870 H   0  0  0  0  0  0  0  0  0  0  0  0
  1  2  2  6  0  0  0
  1  4  1  0  0  0  0
  1  3  1  0  0  0  0
  1 24  1  0  0  0  0
  4  5  1  0  0  0  0
  5  8  1  0  0  0  0
  5  6  2  6  0  0  0
  5  7  1  0  0  0  0
  9  8  1  6  0  0  0
  9 10  1  0  0  0  0
  9 15  1  0  0  0  0
 10 11  1  0  0  0  0
 10 16  1  6  0  0  0
 11 18  1  6  0  0  0
 11 12  1  0  0  0  0
 12 22  1  1  0  0  0
 12 13  1  0  0  0  0
 13 14  1  1  0  0  0
 13 15  1  0  0  0  0
 16 17  1  0  0  0  0
 18 19  1  0  0  0  0
 18 21  1  0  0  0  0
 18 20  1  0  0  0  0
 22 23  1  0  0  0  0
 24 25  1  0  0  0  0
 26 25  1  6  0  0  0
 26 30  1  0  0  0  0
 26 27  1  0  0  0  0
 27 28  1  0  0  0  0
 28 29  1  6  0  0  0
 28 31  1  0  0  0  0
 29 30  1  0  0  0  0
 30 41  1  6  0  0  0
 31 39  1  0  0  0  0
 31 32  1  0  0  0  0
 32 33  2  0  0  0  0
 32 34  1  0  0  0  0
 34 35  1  0  0  0  0
 34 36  1  0  0  0  0
 35 37  1  0  0  0  0
 35 38  2  0  0  0  0
 37 39  2  0  0  0  0
 37 40  1  0  0  0  0
 41 42  1  0  0  0  0
M  END
>  <MODEL>
1

>  <REMARK>
 VINA RESULT:   -11.843      0.000      0.000
 INTER + INTRA:         -20.705
 INTER:                 -18.766
 INTRA:                  -1.939
 UNBOUND:                -1.939
  12 active torsions:
  status: ('A' for Active; 'I' for Inactive)
    1  A    between atoms: P_2  and  O_4 
    2  A    between atoms: P_2  and  O_20 
    3  A    between atoms: O_4  and  C_5 
    4  A    between atoms: C_9  and  O_10 
    5  A    between atoms: C_12  and  N_13 
    6  A    between atoms: C_17  and  O_18 
    7  A    between atoms: O_20  and  P_21 
    8  A    between atoms: P_21  and  O_24 
    9  A    between atoms: O_24  and  C_25 
   10  A    between atoms: C_25  and  C_26 
   11  A    between atoms: C_28  and  O_29 
   12  A    between atoms: C_32  and  N_33 

>  <COMPND>
    /home/daniil/Downloads/ml_docking_review/databases/Vina/outputs/7N7B_T3F/7N7B_T3F.pdbqt 

>  <AUTHOR>
    GENERATED BY OPEN BABEL 3.2.1

>  <MASTER>
        0    0    0    0    0    0    0    0   42    0   42    0

$$$$
