../../databases/Vina/outputs/6Z5Z_BDF/6Z5Z_BDF1.pdb
 OpenBabel08242612033D

 17 17  0  0  1  0  0  0  0  0999 V2000
   -4.6000    5.1770  -18.0030 C   0  0  2  0  0  0  0  0  0  0  0  0
   -3.3290    6.0030  -17.7620 C   0  0  2  0  0  0  0  0  0  0  0  0
   -2.1390    5.0840  -17.4840 C   0  0  1  0  0  0  0  0  0  0  0  0
   -1.9860    4.0760  -18.6140 C   0  0  1  0  0  0  0  0  0  0  0  0
   -3.2820    3.3230  -18.7780 C   0  0  0  0  0  0  0  0  0  0  0  0
   -4.3670    4.2340  -19.0450 O   0  0  0  0  0  0  0  0  0  0  0  0
   -5.7580    6.0440  -18.4740 C   0  0  0  0  0  0  0  0  0  0  0  0
   -5.2990    7.2920  -18.9770 O   0  0  0  0  0  0  0  0  0  0  0  0
   -5.3740    7.3320  -19.9240 H   0  0  0  0  0  0  0  0  0  0  0  0
   -4.9160    4.4990  -16.8170 O   0  0  0  0  0  0  0  0  0  0  0  0
   -5.8010    4.6960  -16.5290 H   0  0  0  0  0  0  0  0  0  0  0  0
   -3.5170    6.8940  -16.6660 O   0  0  0  0  0  0  0  0  0  0  0  0
   -3.5960    7.7880  -16.9770 H   0  0  0  0  0  0  0  0  0  0  0  0
   -0.9580    5.8550  -17.2970 O   0  0  0  0  0  0  0  0  0  0  0  0
   -0.1720    5.3350  -17.4150 H   0  0  0  0  0  0  0  0  0  0  0  0
   -1.6990    4.7120  -19.8700 O   0  0  0  0  0  0  0  0  0  0  0  0
   -2.4270    4.5290  -20.4520 H   0  0  0  0  0  0  0  0  0  0  0  0
  1  6  1  0  0  0  0
  1  7  1  6  0  0  0
  1  2  1  0  0  0  0
  1 10  1  0  0  0  0
  2  3  1  0  0  0  0
  2 12  1  1  0  0  0
  3  4  1  0  0  0  0
  3 14  1  6  0  0  0
  4 16  1  6  0  0  0
  4  5  1  0  0  0  0
  5  6  1  0  0  0  0
  7  8  1  0  0  0  0
  8  9  1  0  0  0  0
 10 11  1  0  0  0  0
 12 13  1  0  0  0  0
 14 15  1  0  0  0  0
 16 17  1  0  0  0  0
M  END
>  <MODEL>
1

>  <REMARK>
 VINA RESULT:    -4.539      0.000      0.000
 INTER + INTRA:          -5.715
 INTER:                  -5.467
 INTRA:                  -0.247
 UNBOUND:                -0.247
  6 active torsions:
  status: ('A' for Active; 'I' for Inactive)
    1  A    between atoms: C_1  and  C_2 
    2  A    between atoms: C_1  and  O_7 
    3  A    between atoms: C_2  and  O_9 
    4  A    between atoms: C_3  and  O_11 
    5  A    between atoms: C_4  and  O_13 
    6  A    between atoms: C_5  and  O_15 

>  <COMPND>
    /home/daniil/Downloads/ml_docking_review/databases/Vina/outputs/6Z5Z_BDF/6Z5Z_BDF.pdbqt 

>  <AUTHOR>
    GENERATED BY OPEN BABEL 3.2.1

>  <MASTER>
        0    0    0    0    0    0    0    0   17    0   17    0

$$$$
