../../databases/Vina/outputs/6VS3_R6V/6VS3_R6V1.pdb
 OpenBabel08242616453D

 43 48  0  0  1  0  0  0  0  0999 V2000
   48.4410  -28.6910   -2.3010 C   0  0  0  0  0  0  0  0  0  0  0  0
   46.9630  -29.0460   -2.5240 C   0  0  0  0  0  0  0  0  0  0  0  0
   49.5220  -28.3260   -2.2360 N   0  0  0  0  0  0  0  0  0  0  0  0
   46.3060  -27.9400   -3.3880 C   0  0  2  0  0  0  0  0  0  0  0  0
   44.9250  -28.4010   -3.9410 C   0  0  0  0  0  0  0  0  0  0  0  0
   44.2890  -27.3600   -4.6130 C   0  0  0  0  0  0  0  0  0  0  0  0
   43.1740  -26.7990   -3.6040 C   0  0  0  0  0  0  0  0  0  0  0  0
   42.9150  -27.9790   -2.5430 C   0  0  0  0  0  0  0  0  0  0  0  0
   44.0100  -28.8290   -2.6170 C   0  0  0  0  0  0  0  0  0  0  0  0
   47.2850  -27.6600   -4.4700 N   0  0  0  0  0  0  0  0  0  0  0  0
   47.6970  -26.4470   -4.7890 C   0  0  0  0  0  0  0  0  0  0  0  0
   48.6210  -26.5860   -5.8330 C   0  0  0  0  0  0  0  0  0  0  0  0
   48.7280  -27.9790   -6.0590 C   0  0  0  0  0  0  0  0  0  0  0  0
   47.9120  -28.5990   -5.2080 N   0  0  0  0  0  0  0  0  0  0  0  0
   47.7840  -29.6080   -5.1290 H   0  0  0  0  0  0  0  0  0  0  0  0
   49.4520  -25.4810   -6.4950 C   0  0  1  0  0  0  0  0  0  0  0  0
   49.0880  -24.0860   -6.4690 C   0  0  0  0  0  0  0  0  0  0  0  0
   47.9820  -23.3050   -6.0140 C   0  0  0  0  0  0  0  0  0  0  0  0
   49.9610  -23.1870   -7.0260 C   0  0  0  0  0  0  0  0  0  0  0  0
   48.2460  -21.9650   -6.3370 C   0  0  0  0  0  0  0  0  0  0  0  0
   49.4190  -21.9110   -6.9510 N   0  0  0  0  0  0  0  0  0  0  0  0
   49.8560  -21.0630   -7.3120 H   0  0  0  0  0  0  0  0  0  0  0  0
   51.1440  -23.6450   -7.5770 N   0  0  0  0  0  0  0  0  0  0  0  0
   51.4340  -24.9270   -7.5470 C   0  0  2  0  0  0  0  0  0  0  0  0
   51.7940  -22.9860   -8.0060 H   0  0  0  0  0  0  0  0  0  0  0  0
   50.6390  -25.8380   -7.0010 N   0  0  0  0  0  0  0  0  0  0  0  0
   50.9330  -26.8140   -6.9670 H   0  0  0  0  0  0  0  0  0  0  0  0
   52.7110  -25.3120   -8.1240 N   0  0  0  0  0  0  0  0  0  0  0  0
   52.9550  -26.3000   -8.0460 H   0  0  0  0  0  0  0  0  0  0  0  0
   53.6890  -24.4680   -8.8000 C   0  0  0  0  0  0  0  0  0  0  0  0
   54.2340  -25.0270   -9.9830 C   0  0  0  0  0  0  0  0  0  0  0  0
   55.1530  -24.3120  -10.7120 C   0  0  0  0  0  0  0  0  0  0  0  0
   55.5730  -23.0130  -10.2900 C   0  0  0  0  0  0  0  0  0  0  0  0
   55.0390  -22.4520   -9.1180 C   0  0  0  0  0  0  0  0  0  0  0  0
   54.0900  -23.1900   -8.3660 C   0  0  0  0  0  0  0  0  0  0  0  0
   56.6150  -22.3170  -11.1990 C   0  0  0  0  0  0  0  0  0  0  0  0
   55.8500  -21.0650  -11.4480 C   0  0  0  0  0  0  0  0  0  0  0  0
   56.4450  -20.1590  -12.5290 C   0  0  0  0  0  0  0  0  0  0  0  0
   57.6720  -20.7130  -13.1310 N   0  0  0  0  0  4  0  0  0  0  0  0
   57.4510  -22.1100  -13.5940 C   0  0  0  0  0  0  0  0  0  0  0  0
   58.4660  -20.6480  -12.4940 H   0  0  0  0  0  0  0  0  0  0  0  0
   58.0260  -20.1180  -13.8810 H   0  0  0  0  0  0  0  0  0  0  0  0
   57.1430  -23.0230  -12.4160 C   0  0  0  0  0  0  0  0  0  0  0  0
  1  2  1  0  0  0  0
  1  3  3  0  0  0  0
  4  2  1  1  0  0  0
  4 10  1  0  0  0  0
  4  5  1  0  0  0  0
  5  6  1  0  0  0  0
  5  9  1  0  0  0  0
  6  7  1  0  0  0  0
  7  8  1  0  0  0  0
  8  9  1  0  0  0  0
 10 14  1  0  0  0  0
 10 11  1  0  0  0  0
 11 12  1  0  0  0  0
 12 13  2  0  0  0  0
 13 14  1  0  0  0  0
 14 15  1  0  0  0  0
 16 12  1  1  0  0  0
 16 26  1  0  0  0  0
 16 17  1  0  0  0  0
 17 19  2  0  0  0  0
 17 18  1  0  0  0  0
 18 20  2  0  0  0  0
 19 23  1  0  0  0  0
 19 21  1  0  0  0  0
 20 21  1  0  0  0  0
 21 22  1  0  0  0  0
 23 25  1  0  0  0  0
 23 24  1  0  0  0  0
 24 28  1  1  0  0  0
 24 26  1  0  0  0  0
 26 27  1  0  0  0  0
 28 30  1  0  0  0  0
 28 29  1  0  0  0  0
 30 31  2  0  0  0  0
 30 35  1  0  0  0  0
 31 32  1  0  0  0  0
 32 33  2  0  0  0  0
 33 36  1  0  0  0  0
 33 34  1  0  0  0  0
 34 35  2  0  0  0  0
 36 43  1  0  0  0  0
 36 37  1  0  0  0  0
 37 38  1  0  0  0  0
 38 39  1  0  0  0  0
 39 42  1  0  0  0  0
 39 40  1  0  0  0  0
 39 41  1  0  0  0  0
 40 43  1  0  0  0  0
M  END
>  <MODEL>
1

>  <REMARK>
 VINA RESULT:   -11.437      0.000      0.000
 INTER + INTRA:         -16.592
 INTER:                 -16.117
 INTRA:                  -0.475
 UNBOUND:                -0.475
  7 active torsions:
  status: ('A' for Active; 'I' for Inactive)
    1  A    between atoms: C_2  and  C_18 
    2  A    between atoms: C_3  and  N_35 
    3  A    between atoms: C_6  and  C_20 
    4  A    between atoms: C_10  and  C_11 
    5  A    between atoms: C_11  and  C_12 
    6  A    between atoms: C_11  and  N_30 
    7  A    between atoms: C_19  and  N_35 

>  <COMPND>
    /home/daniil/Downloads/ml_docking_review/databases/Vina/outputs/6VS3_R6V/6VS3_R6V.pdbqt 

>  <AUTHOR>
    GENERATED BY OPEN BABEL 3.2.1

>  <MASTER>
        0    0    0    0    0    0    0    0   43    0   43    0

$$$$
