../../databases/Vina/outputs/7A1P_QW2/7A1P_QW21.pdb
 OpenBabel08242612033D

 13 12  0  0  1  0  0  0  0  0999 V2000
   19.6020  -24.9450    6.1650 C   0  0  2  0  0  0  0  0  0  0  0  0
   19.7500  -24.4660    4.6860 C   0  0  0  0  0  0  0  0  0  0  0  0
   20.3850  -25.4710    3.7670 C   0  0  0  0  0  0  0  0  0  0  0  0
   19.2970  -26.3550    3.1560 C   0  0  0  0  0  0  0  0  0  0  0  0
   18.1130  -24.6200    6.5250 C   0  0  0  0  0  0  0  0  0  0  0  0
   17.3080  -24.4420    5.4790 O   0  0  0  0  0  0  0  0  0  0  0  0
   17.6660  -24.5700    7.6590 O   0  0  0  0  0  0  0  0  0  0  0  0
   20.6490  -24.2980    7.0800 C   0  0  0  0  0  0  0  0  0  0  0  0
   21.1950  -25.2550    8.1740 C   0  0  0  0  0  0  0  0  0  0  0  0
   20.7820  -26.4020    8.1850 O   0  0  0  0  0  0  0  0  0  0  0  0
   22.0960  -24.6820    9.0530 C   0  0  0  0  0  0  0  0  0  0  0  0
   23.1590  -25.2550    9.3250 O   0  0  0  0  0  0  0  0  0  0  0  0
   21.8510  -23.5420    9.6690 O   0  0  0  0  0  0  0  0  0  0  0  0
  1  2  1  6  0  0  0
  1  5  1  0  0  0  0
  1  8  1  0  0  0  0
  2  3  1  0  0  0  0
  3  4  1  0  0  0  0
  5  6  2  0  0  0  0
  5  7  1  0  0  0  0
  8  9  1  0  0  0  0
  9 10  2  0  0  0  0
  9 11  1  0  0  0  0
 11 12  2  0  0  0  0
 11 13  1  0  0  0  0
M  END
>  <MODEL>
1

>  <REMARK>
 VINA RESULT:    -6.560      0.000      0.000
 INTER + INTRA:          -9.212
 INTER:                  -8.861
 INTRA:                  -0.351
 UNBOUND:                -0.351
  6 active torsions:
  status: ('A' for Active; 'I' for Inactive)
    1  A    between atoms: C_1  and  C_6 
    2  A    between atoms: C_1  and  C_2 
    3  A    between atoms: C_4  and  C_8 
    4  A    between atoms: C_5  and  C_6 
    5  A    between atoms: C_6  and  C_7 
    6  A    between atoms: C_7  and  C_8 

>  <COMPND>
    /home/daniil/Downloads/ml_docking_review/databases/Vina/outputs/7A1P_QW2/7A1P_QW2.pdbqt 

>  <AUTHOR>
    GENERATED BY OPEN BABEL 3.2.1

>  <MASTER>
        0    0    0    0    0    0    0    0   13    0   13    0

$$$$
