../../databases/Vina/outputs/7T9O_GEI/7T9O_GEI1.pdb
 OpenBabel08242616453D

 42 45  0  0  1  0  0  0  0  0999 V2000
   -1.3790   29.3500    6.2960 C   0  0  0  0  0  0  0  0  0  0  0  0
   -2.1090   28.1750    6.0650 C   0  0  1  0  0  0  0  0  0  0  0  0
   -1.5150   26.9790    5.9880 N   0  0  0  0  0  0  0  0  0  0  0  0
   -2.0720   26.1460    5.8000 H   0  0  0  0  0  0  0  0  0  0  0  0
   -0.1960   26.8740    6.1580 C   0  0  0  0  0  0  0  0  0  0  0  0
    0.6350   28.0060    6.3590 C   0  0  0  0  0  0  0  0  0  0  0  0
    0.0220   29.2710    6.4160 C   0  0  0  0  0  0  0  0  0  0  0  0
    0.3400   25.4720    6.1500 C   0  0  0  0  0  0  0  0  0  0  0  0
   -3.6040   28.1610    5.9520 C   0  0  0  0  0  0  0  0  0  0  0  0
   -2.1500   30.6040    6.5700 C   0  0  0  0  0  0  0  0  0  0  0  0
   -2.3560   31.0610    7.8740 C   0  0  0  0  0  0  0  0  0  0  0  0
   -3.1160   32.1870    8.1250 C   0  0  0  0  0  0  0  0  0  0  0  0
   -3.6810   32.8850    7.0680 C   0  0  0  0  0  0  0  0  0  0  0  0
   -3.4720   32.4620    5.7650 C   0  0  0  0  0  0  0  0  0  0  0  0
   -2.7040   31.3400    5.5240 C   0  0  0  0  0  0  0  0  0  0  0  0
   -4.4670   33.9620    7.3840 O   0  0  0  0  0  0  0  0  0  0  0  0
   -3.9100   35.0030    8.2130 C   0  0  0  0  0  0  0  0  0  0  0  0
   -4.7800   36.2500    8.1630 C   0  0  0  0  0  0  0  0  0  0  0  0
   -4.3020   37.2700    7.1620 C   0  0  0  0  0  0  0  0  0  0  0  0
   -3.4860   38.3210    7.5500 C   0  0  0  0  0  0  0  0  0  0  0  0
   -3.0410   39.2570    6.6340 C   0  0  0  0  0  0  0  0  0  0  0  0
   -3.4180   39.1120    5.3290 C   0  0  0  0  0  0  0  0  0  0  0  0
   -4.2140   38.0930    4.8960 C   0  0  0  0  0  0  0  0  0  0  0  0
   -2.9900   40.0270    4.4250 F   0  0  0  0  0  0  0  0  0  0  0  0
   -4.6590   37.1700    5.8270 C   0  0  0  0  0  0  0  0  0  0  0  0
    0.8120   30.4370    6.5540 N   0  0  0  0  0  0  0  0  0  0  0  0
    0.7910   31.5010    5.5480 C   0  0  0  0  0  0  0  0  0  0  0  0
    2.1340   32.2040    5.4650 C   0  0  0  0  0  0  0  0  0  0  0  0
    2.6880   32.7160    6.8010 C   0  0  0  0  0  0  0  0  0  0  0  0
    1.8920   33.9290    7.2860 C   0  0  0  0  0  0  0  0  0  0  0  0
    4.1530   33.1180    6.6170 C   0  0  0  0  0  0  0  0  0  0  0  0
    2.5850   31.5850    7.8330 C   0  0  0  0  0  0  0  0  0  0  0  0
    1.2200   30.9150    7.8790 C   0  0  0  0  0  0  0  0  0  0  0  0
    2.1670   27.8810    6.4700 C   0  0  2  0  0  0  0  0  0  0  0  0
    2.7350   27.1860    5.3580 O   0  0  0  0  0  0  0  0  0  0  0  0
    3.5400   27.8780    4.3660 C   0  0  0  0  0  0  0  0  0  0  0  0
    4.6840   28.6260    5.0250 C   0  0  0  0  0  0  0  0  0  0  0  0
    2.7000   28.8220    3.5280 C   0  0  0  0  0  0  0  0  0  0  0  0
    4.0460   26.7250    3.5290 C   0  0  0  0  0  0  0  0  0  0  0  0
    2.4930   27.1910    7.7900 C   0  0  0  0  0  0  0  0  0  0  0  0
    3.3630   26.2350    7.6820 O   0  0  0  0  0  0  0  0  0  0  0  0
    1.9820   27.5330    8.8460 O   0  0  0  0  0  0  0  0  0  0  0  0
  1  2  1  0  0  0  0
  1  7  2  0  0  0  0
  1 10  1  0  0  0  0
  2  9  1  1  0  0  0
  2  3  1  0  0  0  0
  3  4  1  0  0  0  0
  3  5  1  0  0  0  0
  5  8  1  0  0  0  0
  5  6  2  0  0  0  0
  6  7  1  0  0  0  0
  6 34  1  0  0  0  0
  7 26  1  0  0  0  0
 10 15  2  0  0  0  0
 10 11  1  0  0  0  0
 11 12  2  0  0  0  0
 12 13  1  0  0  0  0
 13 14  2  0  0  0  0
 13 16  1  0  0  0  0
 14 15  1  0  0  0  0
 16 17  1  0  0  0  0
 17 18  1  0  0  0  0
 18 19  1  0  0  0  0
 19 25  2  0  0  0  0
 19 20  1  0  0  0  0
 20 21  2  0  0  0  0
 21 22  1  0  0  0  0
 22 24  1  0  0  0  0
 22 23  2  0  0  0  0
 23 25  1  0  0  0  0
 26 27  1  0  0  0  0
 26 33  1  0  0  0  0
 27 28  1  0  0  0  0
 28 29  1  0  0  0  0
 29 31  1  0  0  0  0
 29 30  1  0  0  0  0
 29 32  1  0  0  0  0
 32 33  1  0  0  0  0
 34 35  1  6  0  0  0
 34 40  1  0  0  0  0
 35 36  1  0  0  0  0
 36 38  1  0  0  0  0
 36 39  1  0  0  0  0
 36 37  1  0  0  0  0
 40 41  2  0  0  0  0
 40 42  1  0  0  0  0
M  END
>  <MODEL>
1

>  <REMARK>
 VINA RESULT:    -6.603      0.000      0.000
 INTER + INTRA:         -12.284
 INTER:                 -10.463
 INTRA:                  -1.821
 UNBOUND:                -1.821
  10 active torsions:
  status: ('A' for Active; 'I' for Inactive)
    1  A    between atoms: C_8  and  O_27 
    2  A    between atoms: C_10  and  C_15 
    3  A    between atoms: C_11  and  C_23 
    4  A    between atoms: C_12  and  C_36 
    5  A    between atoms: C_12  and  C_14 
    6  A    between atoms: C_14  and  O_35 
    7  A    between atoms: C_20  and  C_23 
    8  A    between atoms: C_21  and  N_22 
    9  A    between atoms: C_23  and  O_27 
   10  A    between atoms: C_32  and  O_35 

>  <COMPND>
    /home/daniil/Downloads/ml_docking_review/databases/Vina/outputs/7T9O_GEI/7T9O_GEI.pdbqt 

>  <AUTHOR>
    GENERATED BY OPEN BABEL 3.2.1

>  <MASTER>
        0    0    0    0    0    0    0    0   42    0   42    0

$$$$
