../../databases/Vina/outputs/7R7R_AWJ/7R7R_AWJ1.pdb
 OpenBabel08242612033D

 39 42  0  0  1  0  0  0  0  0999 V2000
   31.6440   44.2540    8.3030 C   0  0  0  0  0  0  0  0  0  0  0  0
   31.7000   42.8650    8.2430 C   0  0  1  0  0  0  0  0  0  0  0  0
   32.8460   42.1740    8.4680 N   0  0  0  0  0  0  0  0  0  0  0  0
   32.8690   41.1550    8.4280 H   0  0  0  0  0  0  0  0  0  0  0  0
   33.9600   42.8940    8.7490 C   0  0  0  0  0  0  0  0  0  0  0  0
   34.0150   44.2760    8.8200 C   0  0  0  0  0  0  0  0  0  0  0  0
   32.8190   44.9540    8.6030 C   0  0  0  0  0  0  0  0  0  0  0  0
   30.5220   42.1440    7.9380 N   0  0  0  0  0  0  0  0  0  0  0  0
   30.4050   44.8360    8.0420 O   0  0  0  0  0  0  0  0  0  0  0  0
   29.8890   45.6980    9.0600 C   0  0  2  0  0  0  0  0  0  0  0  0
   28.9450   44.8660    9.9040 C   0  0  0  0  0  0  0  0  0  0  0  0
   29.1460   46.8290    8.4170 C   0  0  0  0  0  0  0  0  0  0  0  0
   29.8000   47.7930    7.6240 C   0  0  0  0  0  0  0  0  0  0  0  0
   29.0510   48.8130    7.0230 C   0  0  0  0  0  0  0  0  0  0  0  0
   27.6620   48.8490    7.1810 C   0  0  0  0  0  0  0  0  0  0  0  0
   27.0220   47.8970    7.9730 C   0  0  0  0  0  0  0  0  0  0  0  0
   27.7590   46.8890    8.5990 C   0  0  0  0  0  0  0  0  0  0  0  0
   25.6920   47.9520    8.1320 F   0  0  0  0  0  0  0  0  0  0  0  0
   31.1870   47.7860    7.3650 N   0  0  0  0  0  0  0  0  0  0  0  0
   31.6500   47.2790    6.2040 N   0  0  0  0  0  0  0  0  0  0  0  0
   32.8740   47.8070    6.1120 C   0  0  0  0  0  0  0  0  0  0  0  0
   31.1800   46.6490    5.5540 H   0  0  0  0  0  0  0  0  0  0  0  0
   33.1060   48.6300    7.2200 C   0  0  0  0  0  0  0  0  0  0  0  0
   32.0190   48.6300    8.0010 N   0  0  0  0  0  0  0  0  0  0  0  0
   31.8590   49.1440    8.8670 H   0  0  0  0  0  0  0  0  0  0  0  0
   35.2630   44.9910    9.0830 C   0  0  0  0  0  0  0  0  0  0  0  0
   35.6880   45.7760   10.1400 C   0  0  0  0  0  0  0  0  0  0  0  0
   36.9540   46.3200    9.9920 N   0  0  0  0  0  0  0  0  0  0  0  0
   34.9430   46.1170   11.3680 C   0  0  0  0  0  0  0  0  0  0  0  0
   37.5100   45.9580    8.8560 C   0  0  1  0  0  0  0  0  0  0  0  0
   37.3990   46.9270   10.6800 H   0  0  0  0  0  0  0  0  0  0  0  0
   36.5250   44.9060    7.9190 S   0  0  0  0  0  0  0  0  0  0  0  0
   38.8450   46.4000    8.3790 C   0  0  1  0  0  0  0  0  0  0  0  0
   39.0290   45.9170    6.9550 C   0  0  0  0  0  0  0  0  0  0  0  0
   38.9700   47.9070    8.4050 C   0  0  0  0  0  0  0  0  0  0  0  0
   37.6880   48.5240    8.4120 O   0  0  0  0  0  0  0  0  0  0  0  0
   37.4680   48.8400    9.2800 H   0  0  0  0  0  0  0  0  0  0  0  0
   39.9220   45.8280    9.1240 O   0  0  0  0  0  0  0  0  0  0  0  0
   39.7470   45.7850   10.0570 H   0  0  0  0  0  0  0  0  0  0  0  0
  1  9  1  0  0  0  0
  1  2  1  0  0  0  0
  1  7  2  0  0  0  0
  2  8  1  1  0  0  0
  2  3  1  0  0  0  0
  3  4  1  0  0  0  0
  3  5  1  0  0  0  0
  5  6  2  0  0  0  0
  6  7  1  0  0  0  0
  6 26  1  0  0  0  0
  9 10  1  0  0  0  0
 10 12  1  0  0  0  0
 10 11  1  1  0  0  0
 12 13  2  0  0  0  0
 12 17  1  0  0  0  0
 13 14  1  0  0  0  0
 13 19  1  0  0  0  0
 14 15  2  0  0  0  0
 15 16  1  0  0  0  0
 16 18  1  0  0  0  0
 16 17  2  0  0  0  0
 19 20  1  0  0  0  0
 19 24  1  0  0  0  0
 20 22  1  0  0  0  0
 20 21  1  0  0  0  0
 21 23  2  0  0  0  0
 23 24  1  0  0  0  0
 24 25  1  0  0  0  0
 26 32  1  0  0  0  0
 26 27  2  0  0  0  0
 27 28  1  0  0  0  0
 27 29  1  0  0  0  0
 28 30  1  0  0  0  0
 28 31  1  0  0  0  0
 30 32  1  0  0  0  0
 30 33  1  6  0  0  0
 33 34  1  6  0  0  0
 33 35  1  0  0  0  0
 33 38  1  0  0  0  0
 35 36  1  0  0  0  0
 36 37  1  0  0  0  0
 38 39  1  0  0  0  0
M  END
>  <MODEL>
1

>  <REMARK>
 VINA RESULT:    -8.140      0.000      0.000
 INTER + INTRA:         -14.003
 INTER:                 -11.947
 INTRA:                  -2.056
 UNBOUND:                -2.056
  9 active torsions:
  status: ('A' for Active; 'I' for Inactive)
    1  A    between atoms: C_1  and  O_8 
    2  A    between atoms: C_6  and  C_26 
    3  A    between atoms: O_8  and  C_10 
    4  A    between atoms: C_10  and  C_11 
    5  A    between atoms: C_13  and  N_19 
    6  A    between atoms: C_30  and  C_33 
    7  A    between atoms: C_33  and  C_34 
    8  A    between atoms: C_33  and  O_35 
    9  A    between atoms: C_34  and  O_38 

>  <COMPND>
    /home/daniil/Downloads/ml_docking_review/databases/Vina/outputs/7R7R_AWJ/7R7R_AWJ.pdbqt 

>  <AUTHOR>
    GENERATED BY OPEN BABEL 3.2.1

>  <MASTER>
        0    0    0    0    0    0    0    0   39    0   39    0

$$$$
