../../databases/Vina/outputs/7QK0_EBL/7QK0_EBL1.pdb
 OpenBabel08242616453D

 43 48  0  0  1  0  0  0  0  0999 V2000
  -20.0930   10.6770   20.0820 C   0  0  0  0  0  0  0  0  0  0  0  0
  -22.3080   10.9700   18.8720 C   0  0  2  0  0  0  0  0  0  0  0  0
  -21.3920   13.1530   19.4840 C   0  0  0  0  0  0  0  0  0  0  0  0
  -20.9570   12.7960   20.7260 C   0  0  0  0  0  0  0  0  0  0  0  0
  -20.5370   13.7170   21.7380 C   0  0  0  0  0  0  0  0  0  0  0  0
  -20.2210   13.4050   22.8680 O   0  0  0  0  0  0  0  0  0  0  0  0
  -20.7710   11.4810   21.0700 O   0  0  0  0  0  0  0  0  0  0  0  0
  -21.8830   12.3310   18.5620 N   0  0  0  0  0  0  0  0  0  0  0  0
  -21.9650   12.6640   17.6010 H   0  0  0  0  0  0  0  0  0  0  0  0
  -21.1510   10.0160   19.2280 C   0  0  0  0  0  0  0  0  0  0  0  0
  -20.5630    9.4130   18.1610 F   0  0  0  0  0  0  0  0  0  0  0  0
  -21.6680    8.9540   19.9010 F   0  0  0  0  0  0  0  0  0  0  0  0
  -20.5740   15.0470   21.3760 N   0  0  0  0  0  0  0  0  0  0  0  0
  -20.1610   16.0220   22.3730 C   0  0  0  0  0  0  0  0  0  0  0  0
  -20.9980   15.4870   20.1180 C   0  0  0  0  0  0  0  0  0  0  0  0
  -21.0150   16.8450   19.8240 C   0  0  0  0  0  0  0  0  0  0  0  0
  -21.4300   17.2890   18.5840 C   0  0  0  0  0  0  0  0  0  0  0  0
  -21.8370   16.3870   17.6180 C   0  0  0  0  0  0  0  0  0  0  0  0
  -21.8230   15.0260   17.8960 C   0  0  0  0  0  0  0  0  0  0  0  0
  -21.4070   14.5610   19.1430 C   0  0  0  0  0  0  0  0  0  0  0  0
  -22.2940   16.8790   16.3860 N   0  0  0  0  0  0  0  0  0  0  0  0
  -21.5830   17.2110   15.7340 H   0  0  0  0  0  0  0  0  0  0  0  0
  -23.5810   16.9600   15.9730 C   0  0  2  0  0  0  0  0  0  0  0  0
  -24.3420   17.9420   16.4560 N   0  0  0  0  0  0  0  0  0  0  0  0
  -25.6180   17.9970   16.0460 C   0  0  1  0  0  0  0  0  0  0  0  0
  -23.9680   18.6270   17.1120 H   0  0  0  0  0  0  0  0  0  0  0  0
  -26.3680   18.9990   16.5470 N   0  0  2  0  0  0  0  0  0  0  0  0
  -26.2110   17.1600   15.1890 N   0  0  0  0  0  0  0  0  0  0  0  0
  -27.6670   19.3970   16.0080 C   0  0  0  0  0  0  0  0  0  0  0  0
  -25.6950   20.1540   17.1390 C   0  0  0  0  0  0  0  0  0  0  0  0
  -27.5250   20.4270   14.8990 C   0  0  1  0  0  0  0  0  0  0  0  0
  -28.8870   20.8760   14.3940 C   0  0  0  0  0  0  0  0  0  0  0  0
  -26.7070   21.6100   15.4030 C   0  0  0  0  0  0  0  0  0  0  0  0
  -25.4150   21.1620   16.0520 C   0  0  1  0  0  0  0  0  0  0  0  0
  -25.4440   16.1830   14.7070 C   0  0  0  0  0  0  0  0  0  0  0  0
  -27.1900   17.2640   14.9200 H   0  0  0  0  0  0  0  0  0  0  0  0
  -24.1160   16.0330   15.0690 C   0  0  0  0  0  0  0  0  0  0  0  0
  -23.1300   14.7700   14.4100 Cl  0  0  0  0  0  0  0  0  0  0  0  0
  -24.7160   22.2820   16.5780 O   0  0  0  0  0  0  0  0  0  0  0  0
  -24.4830   22.8860   15.8840 H   0  0  0  0  0  0  0  0  0  0  0  0
  -23.1730   10.4260   17.7510 C   0  0  0  0  0  0  0  0  0  0  0  0
  -24.6590   10.4850   17.8860 C   0  0  0  0  0  0  0  0  0  0  0  0
  -23.9590    9.1770   17.9780 C   0  0  0  0  0  0  0  0  0  0  0  0
  1 10  1  0  0  0  0
  1  7  1  0  0  0  0
  2 41  1  6  0  0  0
  2  8  1  0  0  0  0
  2 10  1  0  0  0  0
  3  8  1  0  0  0  0
  3 20  1  0  0  0  0
  3  4  2  0  0  0  0
  4  7  1  0  0  0  0
  4  5  1  0  0  0  0
  5 13  1  0  0  0  0
  5  6  2  0  0  0  0
  8  9  1  0  0  0  0
 10 11  1  0  0  0  0
 10 12  1  0  0  0  0
 13 15  1  0  0  0  0
 13 14  1  0  0  0  0
 15 20  2  0  0  0  0
 15 16  1  0  0  0  0
 16 17  2  0  0  0  0
 17 18  1  0  0  0  0
 18 21  1  0  0  0  0
 18 19  2  0  0  0  0
 19 20  1  0  0  0  0
 21 22  1  0  0  0  0
 23 21  1  1  0  0  0
 23 37  1  0  0  0  0
 23 24  1  0  0  0  0
 24 26  1  0  0  0  0
 25 24  1  6  0  0  0
 25 28  1  0  0  0  0
 25 27  1  0  0  0  0
 27 29  1  6  0  0  0
 27 30  1  0  0  0  0
 28 35  1  0  0  0  0
 28 36  1  0  0  0  0
 29 31  1  0  0  0  0
 30 34  1  0  0  0  0
 31 32  1  1  0  0  0
 31 33  1  0  0  0  0
 33 34  1  0  0  0  0
 34 39  1  1  0  0  0
 35 37  2  0  0  0  0
 37 38  1  0  0  0  0
 39 40  1  0  0  0  0
 41 42  1  0  0  0  0
 41 43  1  0  0  0  0
 42 43  1  0  0  0  0
M  END
>  <MODEL>
1

>  <REMARK>
 VINA RESULT:    -7.990      0.000      0.000
 INTER + INTRA:         -10.481
 INTER:                  -9.625
 INTRA:                  -0.856
 UNBOUND:                -0.856
  4 active torsions:
  status: ('A' for Active; 'I' for Inactive)
    1  A    between atoms: C_2  and  C_3 
    2  A    between atoms: C_8  and  O_42 
    3  A    between atoms: C_25  and  N_28 
    4  A    between atoms: N_28  and  C_30 

>  <COMPND>
    /home/daniil/Downloads/ml_docking_review/databases/Vina/outputs/7QK0_EBL/7QK0_EBL.pdbqt 

>  <AUTHOR>
    GENERATED BY OPEN BABEL 3.2.1

>  <MASTER>
        0    0    0    0    0    0    0    0   43    0   43    0

$$$$
