../../databases/Vina/outputs/7BJ6_TVK/7BJ6_TVK1.pdb
 OpenBabel08242616453D

 40 44  0  0  1  0  0  0  0  0999 V2000
  -21.6510   -9.3050   13.3040 C   0  0  2  0  0  0  0  0  0  0  0  0
  -23.5910   -8.2310   14.0990 C   0  0  0  0  0  0  0  0  0  0  0  0
  -24.6480   -8.0600   14.6860 O   0  0  0  0  0  0  0  0  0  0  0  0
  -23.0960   -5.9310   13.0380 C   0  0  0  0  0  0  0  0  0  0  0  0
  -21.0520   -5.7750   11.8070 C   0  0  0  0  0  0  0  0  0  0  0  0
  -20.7720   -7.0770   12.1200 C   0  0  0  0  0  0  0  0  0  0  0  0
  -21.6420   -7.8480   12.9030 C   0  0  0  0  0  0  0  0  0  0  0  0
  -22.9080   -9.4090   14.0190 N   0  0  0  0  0  0  0  0  0  0  0  0
  -22.8040   -7.2460   13.3470 C   0  0  0  0  0  0  0  0  0  0  0  0
  -22.2210   -5.1640   12.2600 C   0  0  0  0  0  0  0  0  0  0  0  0
  -19.6310   -7.6380   11.6820 F   0  0  0  0  0  0  0  0  0  0  0  0
  -20.5040   -9.8170   13.9560 O   0  0  0  0  0  0  0  0  0  0  0  0
  -20.1910   -9.0890   15.1760 C   0  0  0  0  0  0  0  0  0  0  0  0
  -19.2980   -9.9490   16.0590 C   0  0  0  0  0  0  0  0  0  0  0  0
  -19.6360  -11.4000   16.1810 C   0  0  0  0  0  0  0  0  0  0  0  0
  -19.8440  -10.4780   17.3400 C   0  0  0  0  0  0  0  0  0  0  0  0
  -17.8350   -9.5270   15.9980 C   0  0  0  0  0  0  0  0  0  0  0  0
  -16.9750  -10.5900   15.6230 O   0  0  0  0  0  0  0  0  0  0  0  0
  -17.0420  -11.3380   16.2050 H   0  0  0  0  0  0  0  0  0  0  0  0
  -21.7610  -10.1470   12.0120 C   0  0  0  0  0  0  0  0  0  0  0  0
  -21.0720  -11.3510   11.8490 C   0  0  0  0  0  0  0  0  0  0  0  0
  -21.1540  -12.0690   10.6600 C   0  0  0  0  0  0  0  0  0  0  0  0
  -21.9170  -11.5720    9.6210 C   0  0  0  0  0  0  0  0  0  0  0  0
  -22.5960  -10.3900    9.7400 C   0  0  0  0  0  0  0  0  0  0  0  0
  -21.9700  -12.4370    8.0870 Cl  0  0  0  0  0  0  0  0  0  0  0  0
  -22.5020   -9.6710   10.9250 C   0  0  0  0  0  0  0  0  0  0  0  0
  -23.3860  -10.6480   14.6240 C   0  0  0  0  0  0  0  0  0  0  0  0
  -24.1610  -11.5930   13.7340 C   0  0  2  0  0  0  0  0  0  0  0  0
  -24.9720  -11.1150   12.7130 C   0  0  0  0  0  0  0  0  0  0  0  0
  -25.6310  -12.0160   11.9010 C   0  0  0  0  0  0  0  0  0  0  0  0
  -25.5100  -13.3650   12.1610 C   0  0  0  0  0  0  0  0  0  0  0  0
  -26.3500  -14.4990   11.1230 Cl  0  0  0  0  0  0  0  0  0  0  0  0
  -24.6770  -13.7830   13.1990 C   0  0  0  0  0  0  0  0  0  0  0  0
  -24.0250  -12.9100   13.9940 N   0  0  0  0  0  0  0  0  0  0  0  0
  -23.4460  -13.2350   14.7680 H   0  0  0  0  0  0  0  0  0  0  0  0
  -22.5730   -3.7320   11.8650 C   0  0  0  0  0  0  0  0  0  0  0  0
  -21.8500   -2.6560   12.6730 C   0  0  0  0  0  0  0  0  0  0  0  0
  -22.3210   -3.5180   10.3720 C   0  0  0  0  0  0  0  0  0  0  0  0
  -24.0040   -3.6530   12.0230 O   0  0  0  0  0  0  0  0  0  0  0  0
  -24.3970   -4.5110   12.1220 H   0  0  0  0  0  0  0  0  0  0  0  0
  1 20  1  0  0  0  0
  1  7  1  0  0  0  0
  1 12  1  1  0  0  0
  1  8  1  0  0  0  0
  2  9  1  0  0  0  0
  2  8  1  0  0  0  0
  2  3  2  0  0  0  0
  4 10  2  0  0  0  0
  4  9  1  0  0  0  0
  5  6  2  0  0  0  0
  5 10  1  0  0  0  0
  6 11  1  0  0  0  0
  6  7  1  0  0  0  0
  7  9  2  0  0  0  0
  8 27  1  0  0  0  0
 10 36  1  0  0  0  0
 12 13  1  0  0  0  0
 13 14  1  0  0  0  0
 14 17  1  0  0  0  0
 14 15  1  0  0  0  0
 14 16  1  0  0  0  0
 15 16  1  0  0  0  0
 17 18  1  0  0  0  0
 18 19  1  0  0  0  0
 20 26  2  0  0  0  0
 20 21  1  0  0  0  0
 21 22  2  0  0  0  0
 22 23  1  0  0  0  0
 23 25  1  0  0  0  0
 23 24  2  0  0  0  0
 24 26  1  0  0  0  0
 28 27  1  1  0  0  0
 28 29  1  0  0  0  0
 28 34  1  0  0  0  0
 29 30  2  0  0  0  0
 30 31  1  0  0  0  0
 31 32  1  0  0  0  0
 31 33  2  0  0  0  0
 33 34  1  0  0  0  0
 34 35  1  0  0  0  0
 36 38  1  0  0  0  0
 36 39  1  0  0  0  0
 36 37  1  0  0  0  0
 39 40  1  0  0  0  0
M  END
>  <MODEL>
1

>  <REMARK>
 VINA RESULT:    -9.570      0.000      0.000
 INTER + INTRA:         -16.747
 INTER:                 -14.605
 INTRA:                  -2.142
 UNBOUND:                -2.142
  10 active torsions:
  status: ('A' for Active; 'I' for Inactive)
    1  A    between atoms: C_1  and  C_2 
    2  A    between atoms: C_1  and  O_22 
    3  A    between atoms: C_2  and  C_24 
    4  A    between atoms: C_3  and  O_25 
    5  A    between atoms: C_3  and  C_36 
    6  A    between atoms: C_4  and  N_26 
    7  A    between atoms: C_4  and  C_27 
    8  A    between atoms: C_15  and  C_32 
    9  A    between atoms: C_15  and  O_34 
   10  A    between atoms: C_24  and  O_25 

>  <COMPND>
    /home/daniil/Downloads/ml_docking_review/databases/Vina/outputs/7BJ6_TVK/7BJ6_TVK.pdbqt 

>  <AUTHOR>
    GENERATED BY OPEN BABEL 3.2.1

>  <MASTER>
        0    0    0    0    0    0    0    0   40    0   40    0

$$$$
