../../databases/Vina/outputs/8CSD_C5P/8CSD_C5P1.pdb
 OpenBabel08242616453D

 26 27  0  0  1  0  0  0  0  0999 V2000
   16.9680   72.7930   32.9750 C   0  0  1  0  0  0  0  0  0  0  0  0
   15.8170   73.5910   32.7240 O   0  0  0  0  0  0  0  0  0  0  0  0
   17.3000   73.0860   34.4130 C   0  0  2  0  0  0  0  0  0  0  0  0
   16.9240   74.6130   34.5100 C   0  0  2  0  0  0  0  0  0  0  0  0
   15.6850   74.6780   33.5350 C   0  0  2  0  0  0  0  0  0  0  0  0
   14.3730   74.5890   34.2900 N   0  0  0  0  0  0  0  0  0  0  0  0
   13.6660   73.4080   34.4120 C   0  0  0  0  0  0  0  0  0  0  0  0
   12.4550   73.3120   35.0730 C   0  0  0  0  0  0  0  0  0  0  0  0
   11.8930   74.4780   35.7170 C   0  0  0  0  0  0  0  0  0  0  0  0
   12.6250   75.6670   35.6240 N   0  0  0  0  0  0  0  0  0  0  0  0
   13.8530   75.8260   34.9250 C   0  0  0  0  0  0  0  0  0  0  0  0
   12.2460   76.4870   36.0960 H   0  0  0  0  0  0  0  0  0  0  0  0
   14.4910   76.8640   34.8390 O   0  0  0  0  0  0  0  0  0  0  0  0
   10.7020   74.4560   36.3860 N   0  0  0  0  0  0  0  0  0  0  0  0
   10.0010   73.7510   36.1600 H   0  0  0  0  0  0  0  0  0  0  0  0
   10.4690   75.1200   37.1250 H   0  0  0  0  0  0  0  0  0  0  0  0
   17.9950   75.2990   33.9770 O   0  0  0  0  0  0  0  0  0  0  0  0
   18.0380   76.1780   34.3340 H   0  0  0  0  0  0  0  0  0  0  0  0
   18.6280   72.9470   34.8190 O   0  0  0  0  0  0  0  0  0  0  0  0
   19.1820   72.3490   34.3310 H   0  0  0  0  0  0  0  0  0  0  0  0
   16.6160   71.1940   32.8320 C   0  0  0  0  0  0  0  0  0  0  0  0
   15.3050   71.0970   32.4930 O   0  0  0  0  0  0  0  0  0  0  0  0
   14.3640   69.5910   32.7020 P   0  0  0  0  0  0  0  0  0  0  0  0
   13.2540   69.9710   33.6810 O   0  0  0  0  0  0  0  0  0  0  0  0
   13.8970   69.3310   31.2730 O   0  0  0  0  0  0  0  0  0  0  0  0
   15.4570   68.6490   33.1870 O   0  0  0  0  0  0  0  0  0  0  0  0
  1  2  1  0  0  0  0
  1 21  1  1  0  0  0
  1  3  1  0  0  0  0
  2  5  1  0  0  0  0
  3  4  1  0  0  0  0
  3 19  1  6  0  0  0
  4  5  1  0  0  0  0
  4 17  1  6  0  0  0
  5  6  1  1  0  0  0
  6  7  1  0  0  0  0
  6 11  1  0  0  0  0
  7  8  1  0  0  0  0
  8  9  2  0  0  0  0
  9 10  1  0  0  0  0
  9 14  1  0  0  0  0
 10 11  1  0  0  0  0
 10 12  1  0  0  0  0
 11 13  2  0  0  0  0
 14 15  1  0  0  0  0
 14 16  1  0  0  0  0
 17 18  1  0  0  0  0
 19 20  1  0  0  0  0
 21 22  1  0  0  0  0
 22 23  1  0  0  0  0
 23 25  2  0  0  0  0
 23 26  1  0  0  0  0
 23 24  1  0  0  0  0
M  END
>  <MODEL>
1

>  <REMARK>
 VINA RESULT:    -7.669      0.000      0.000
 INTER + INTRA:         -10.755
 INTER:                 -10.135
 INTRA:                  -0.620
 UNBOUND:                -0.620
  7 active torsions:
  status: ('A' for Active; 'I' for Inactive)
    1  A    between atoms: P_2  and  O_5 
    2  A    between atoms: O_5  and  C_6 
    3  A    between atoms: C_6  and  C_7 
    4  A    between atoms: C_9  and  O_10 
    5  A    between atoms: C_12  and  O_13 
    6  A    between atoms: C_15  and  N_16 
    7  A    between atoms: C_20  and  N_24 

>  <COMPND>
    /home/daniil/Downloads/ml_docking_review/databases/Vina/outputs/8CSD_C5P/8CSD_C5P.pdbqt 

>  <AUTHOR>
    GENERATED BY OPEN BABEL 3.2.1

>  <MASTER>
        0    0    0    0    0    0    0    0   26    0   26    0

$$$$
