../../databases/Vina/outputs/8C3N_ADP/8C3N_ADP1.pdb
 OpenBabel08242611493D

 34 36  0  0  1  0  0  0  0  0999 V2000
   20.6150  -38.2670  -52.9280 C   0  0  1  0  0  0  0  0  0  0  0  0
   20.7040  -37.3650  -54.0620 O   0  0  0  0  0  0  0  0  0  0  0  0
   20.7260  -39.6870  -53.5050 C   0  0  2  0  0  0  0  0  0  0  0  0
   21.2450  -39.4450  -54.9230 C   0  0  2  0  0  0  0  0  0  0  0  0
   20.6020  -38.1030  -55.2530 C   0  0  2  0  0  0  0  0  0  0  0  0
   21.3130  -37.4050  -56.3150 N   0  0  0  0  0  0  0  0  0  0  0  0
   20.9330  -37.3220  -57.6300 C   0  0  0  0  0  0  0  0  0  0  0  0
   21.7440  -36.6020  -58.3610 N   0  0  0  0  0  0  0  0  0  0  0  0
   22.7210  -36.1760  -57.4730 C   0  0  0  0  0  0  0  0  0  0  0  0
   21.6750  -36.3990  -59.3590 H   0  0  0  0  0  0  0  0  0  0  0  0
   23.8670  -35.3750  -57.6410 C   0  0  1  0  0  0  0  0  0  0  0  0
   22.4630  -36.6610  -56.2070 C   0  0  0  0  0  0  0  0  0  0  0  0
   24.6310  -35.1440  -56.5490 N   0  0  0  0  0  0  0  0  0  0  0  0
   24.2560  -35.6810  -55.3820 C   0  0  0  0  0  0  0  0  0  0  0  0
   25.4730  -34.5720  -56.6130 H   0  0  0  0  0  0  0  0  0  0  0  0
   23.2030  -36.4460  -55.1070 N   0  0  0  0  0  0  0  0  0  0  0  0
   22.9850  -36.8190  -54.1830 H   0  0  0  0  0  0  0  0  0  0  0  0
   24.2340  -34.8420  -58.8030 N   0  0  0  0  0  0  0  0  0  0  0  0
   23.9110  -33.9030  -59.0360 H   0  0  0  0  0  0  0  0  0  0  0  0
   24.8270  -35.3180  -59.4820 H   0  0  0  0  0  0  0  0  0  0  0  0
   20.8770  -40.4570  -55.8330 O   0  0  0  0  0  0  0  0  0  0  0  0
   21.1440  -40.2750  -56.7270 H   0  0  0  0  0  0  0  0  0  0  0  0
   21.6600  -37.8740  -51.9150 C   0  0  0  0  0  0  0  0  0  0  0  0
   21.3450  -38.5340  -50.6680 O   0  0  0  0  0  0  0  0  0  0  0  0
   20.9470  -37.6970  -49.3620 P   0  0  1  0  0  0  0  0  0  0  0  0
   22.0090  -37.8370  -48.3230 O   0  0  0  0  0  0  0  0  0  0  0  0
   20.5450  -36.3220  -49.7830 O   0  0  0  0  0  0  0  0  0  0  0  0
   19.6360  -38.4720  -48.8650 O   0  0  0  0  0  0  0  0  0  0  0  0
   18.8430  -38.3840  -47.4630 P   0  0  0  0  0  0  0  0  0  0  0  0
   19.2570  -37.0760  -46.8390 O   0  0  0  0  0  0  0  0  0  0  0  0
   17.3820  -38.4200  -47.8370 O   0  0  0  0  0  0  0  0  0  0  0  0
   19.2740  -39.5900  -46.6640 O   0  0  0  0  0  0  0  0  0  0  0  0
   19.4570  -40.3230  -53.5490 O   0  0  0  0  0  0  0  0  0  0  0  0
   19.4070  -41.0320  -52.9190 H   0  0  0  0  0  0  0  0  0  0  0  0
  1  2  1  0  0  0  0
  1  3  1  0  0  0  0
  1 23  1  1  0  0  0
  2  5  1  0  0  0  0
  3  4  1  0  0  0  0
  3 33  1  6  0  0  0
  4 21  1  6  0  0  0
  4  5  1  0  0  0  0
  5  6  1  6  0  0  0
  6  7  1  0  0  0  0
  6 12  1  0  0  0  0
  7  8  1  0  0  0  0
  8 10  1  0  0  0  0
  8  9  1  0  0  0  0
  9 11  1  0  0  0  0
  9 12  2  0  0  0  0
 11 18  1  6  0  0  0
 11 13  1  0  0  0  0
 12 16  1  0  0  0  0
 13 15  1  0  0  0  0
 13 14  1  0  0  0  0
 14 16  1  0  0  0  0
 16 17  1  0  0  0  0
 18 20  1  0  0  0  0
 18 19  1  0  0  0  0
 21 22  1  0  0  0  0
 23 24  1  0  0  0  0
 24 25  1  0  0  0  0
 25 27  2  6  0  0  0
 25 28  1  0  0  0  0
 25 26  1  0  0  0  0
 28 29  1  0  0  0  0
 29 31  2  0  0  0  0
 29 30  1  0  0  0  0
 29 32  1  0  0  0  0
 33 34  1  0  0  0  0
M  END
>  <MODEL>
1

>  <REMARK>
 VINA RESULT:    -7.425      0.000      0.000
 INTER + INTRA:         -11.728
 INTER:                 -10.680
 INTRA:                  -1.048
 UNBOUND:                -1.048
  9 active torsions:
  status: ('A' for Active; 'I' for Inactive)
    1  A    between atoms: P_1  and  O_8 
    2  A    between atoms: P_5  and  O_8 
    3  A    between atoms: P_5  and  O_9 
    4  A    between atoms: O_9  and  C_10 
    5  A    between atoms: C_10  and  C_11 
    6  A    between atoms: C_13  and  O_14 
    7  A    between atoms: C_16  and  O_17 
    8  A    between atoms: C_19  and  N_20 
    9  A    between atoms: C_25  and  N_26 

>  <COMPND>
    /home/daniil/Downloads/ml_docking_review/databases/Vina/outputs/8C3N_ADP/8C3N_ADP.pdbqt 

>  <AUTHOR>
    GENERATED BY OPEN BABEL 3.2.1

>  <MASTER>
        0    0    0    0    0    0    0    0   34    0   34    0

$$$$
