../../databases/Vina/outputs/7CTM_BDP/7CTM_BDP1.pdb
 OpenBabel08242616453D

 17 17  0  0  1  0  0  0  0  0999 V2000
   -3.0950   -5.1210  107.5970 C   0  0  1  0  0  0  0  0  0  0  0  0
   -2.0570   -4.2170  108.2440 C   0  0  1  0  0  0  0  0  0  0  0  0
   -0.7260   -4.3560  107.6090 C   0  0  2  0  0  0  0  0  0  0  0  0
   -0.2760   -5.7840  107.5360 C   0  0  1  0  0  0  0  0  0  0  0  0
   -1.3490   -6.6680  106.9070 C   0  0  2  0  0  0  0  0  0  0  0  0
   -2.6390   -6.5480  107.5960 O   0  0  0  0  0  0  0  0  0  0  0  0
   -0.9290   -8.0910  107.0300 C   0  0  0  0  0  0  0  0  0  0  0  0
   -1.4700   -8.8380  107.8880 O   0  0  0  0  0  0  0  0  0  0  0  0
   -0.0370   -8.5240  106.2550 O   0  0  0  0  0  0  0  0  0  0  0  0
    0.9240   -5.8550  106.7620 O   0  0  0  0  0  0  0  0  0  0  0  0
    1.6430   -5.5030  107.2730 H   0  0  0  0  0  0  0  0  0  0  0  0
   -4.2640   -5.0370  108.2800 O   0  0  0  0  0  0  0  0  0  0  0  0
   -4.2280   -5.5970  109.0460 H   0  0  0  0  0  0  0  0  0  0  0  0
    0.2480   -3.6210  108.3840 O   0  0  0  0  0  0  0  0  0  0  0  0
   -0.0240   -3.6070  109.2930 H   0  0  0  0  0  0  0  0  0  0  0  0
   -2.4890   -2.8540  108.0990 O   0  0  0  0  0  0  0  0  0  0  0  0
   -2.7860   -2.5430  108.9450 H   0  0  0  0  0  0  0  0  0  0  0  0
  1  6  1  0  0  0  0
  1  2  1  0  0  0  0
  1 12  1  1  0  0  0
  2  3  1  0  0  0  0
  2 16  1  6  0  0  0
  3  4  1  0  0  0  0
  3 14  1  1  0  0  0
  4 10  1  6  0  0  0
  4  5  1  0  0  0  0
  5  7  1  1  0  0  0
  5  6  1  0  0  0  0
  7  9  2  0  0  0  0
  7  8  1  0  0  0  0
 10 11  1  0  0  0  0
 12 13  1  0  0  0  0
 14 15  1  0  0  0  0
 16 17  1  0  0  0  0
M  END
>  <MODEL>
1

>  <REMARK>
 VINA RESULT:    -6.883      0.000      0.000
 INTER + INTRA:          -8.377
 INTER:                  -8.090
 INTRA:                  -0.288
 UNBOUND:                -0.288
  5 active torsions:
  status: ('A' for Active; 'I' for Inactive)
    1  A    between atoms: C_1  and  O_15 
    2  A    between atoms: C_2  and  O_7 
    3  A    between atoms: C_3  and  O_9 
    4  A    between atoms: C_4  and  O_11 
    5  A    between atoms: C_5  and  C_6 

>  <COMPND>
    /home/daniil/Downloads/ml_docking_review/databases/Vina/outputs/7CTM_BDP/7CTM_BDP.pdbqt 

>  <AUTHOR>
    GENERATED BY OPEN BABEL 3.2.1

>  <MASTER>
        0    0    0    0    0    0    0    0   17    0   17    0

$$$$
