../../databases/Vina/outputs/7A9E_R4W/7A9E_R4W1.pdb
 OpenBabel08242611493D

  6  5  0  0  0  0  0  0  0  0999 V2000
   20.9410   31.9990   -9.9120 C   0  0  0  0  0  0  0  0  0  0  0  0
   20.6800   34.0680   -8.4090 O   0  0  0  0  0  0  0  0  0  0  0  0
   20.1020   31.9060   -7.4830 O   0  0  0  0  0  0  0  0  0  0  0  0
   20.1200   32.7790   -8.5920 S   0  0  0  0  0  0  0  0  0  0  0  0
   18.4690   32.9660   -9.1600 C   0  0  0  0  0  0  0  0  0  0  0  0
   18.5320   33.3410  -10.5990 C   0  0  0  0  0  0  0  0  0  0  0  0
  1  4  1  0  0  0  0
  2  4  2  0  0  0  0
  3  4  2  0  0  0  0
  4  5  1  0  0  0  0
  5  6  1  0  0  0  0
M  END
>  <MODEL>
1

>  <REMARK>
 VINA RESULT:    -3.578      0.000      0.000
 INTER + INTRA:          -3.787
 INTER:                  -3.787
 INTRA:                   0.000
 UNBOUND:                 0.000
  1 active torsions:
  status: ('A' for Active; 'I' for Inactive)
    1  A    between atoms: C_4  and  S_6 

>  <COMPND>
    /home/daniil/Downloads/ml_docking_review/databases/Vina/outputs/7A9E_R4W/7A9E_R4W.pdbqt 

>  <AUTHOR>
    GENERATED BY OPEN BABEL 3.2.1

>  <MASTER>
        0    0    0    0    0    0    0    0    6    0    6    0

$$$$
