../../databases/Vina/outputs/8ERS_WQO/8ERS_WQO1.pdb
 OpenBabel08242616453D

 24 26  0  0  1  0  0  0  0  0999 V2000
  -43.8820  -29.4900    4.4570 C   0  0  0  0  0  0  0  0  0  0  0  0
  -46.1650  -29.1450    3.8750 C   0  0  0  0  0  0  0  0  0  0  0  0
  -44.8380  -29.2760    3.4890 C   0  0  0  0  0  0  0  0  0  0  0  0
  -46.5170  -29.2330    5.2240 C   0  0  0  0  0  0  0  0  0  0  0  0
  -48.0430  -29.0750    5.3590 C   0  0  0  0  0  0  0  0  0  0  0  0
  -48.4300  -28.4410    4.0370 C   0  0  1  0  0  0  0  0  0  0  0  0
  -45.5500  -29.4510    6.1850 C   0  0  0  0  0  0  0  0  0  0  0  0
  -44.2360  -29.5780    5.7820 C   0  0  0  0  0  0  0  0  0  0  0  0
  -47.4250  -28.9010    3.0320 C   0  0  1  0  0  0  0  0  0  0  0  0
  -47.2800  -27.8380    2.1260 O   0  0  0  0  0  0  0  0  0  0  0  0
  -47.0440  -28.0850    0.7870 C   0  0  0  0  0  0  0  0  0  0  0  0
  -47.7670  -28.7740    0.1510 O   0  0  0  0  0  0  0  0  0  0  0  0
  -45.8490  -27.3530    0.2230 C   0  0  0  0  0  0  0  0  0  0  0  0
  -44.5790  -27.8770    0.3480 C   0  0  0  0  0  0  0  0  0  0  0  0
  -43.5000  -27.1690   -0.1470 C   0  0  0  0  0  0  0  0  0  0  0  0
  -43.7040  -25.9400   -0.7460 C   0  0  0  0  0  0  0  0  0  0  0  0
  -42.5860  -25.1950   -1.2410 N   0  0  0  0  0  0  0  0  0  0  0  0
  -44.9690  -25.4030   -0.8700 C   0  0  0  0  0  0  0  0  0  0  0  0
  -46.0280  -26.1220   -0.3740 C   0  0  0  0  0  0  0  0  0  0  0  0
  -47.2890  -25.5700   -0.5140 O   0  0  0  0  0  0  0  0  0  0  0  0
  -47.4100  -24.6300   -0.5750 H   0  0  0  0  0  0  0  0  0  0  0  0
  -49.8540  -28.7850    3.6190 C   0  0  0  0  0  0  0  0  0  0  0  0
  -50.0700  -29.4040    2.5540 O   0  0  0  0  0  0  0  0  0  0  0  0
  -50.8020  -28.4200    4.3490 O   0  0  0  0  0  0  0  0  0  0  0  0
  1  3  2  0  0  0  0
  1  8  1  0  0  0  0
  2  9  1  0  0  0  0
  2  3  1  0  0  0  0
  2  4  2  0  0  0  0
  4  5  1  0  0  0  0
  4  7  1  0  0  0  0
  5  6  1  0  0  0  0
  6  9  1  0  0  0  0
  6 22  1  6  0  0  0
  7  8  2  0  0  0  0
  9 10  1  6  0  0  0
 10 11  1  0  0  0  0
 11 12  2  0  0  0  0
 11 13  1  0  0  0  0
 13 19  2  0  0  0  0
 13 14  1  0  0  0  0
 14 15  2  0  0  0  0
 15 16  1  0  0  0  0
 16 17  1  0  0  0  0
 16 18  2  0  0  0  0
 18 19  1  0  0  0  0
 19 20  1  0  0  0  0
 20 21  1  0  0  0  0
 22 23  2  0  0  0  0
 22 24  1  0  0  0  0
M  END
>  <MODEL>
1

>  <REMARK>
 VINA RESULT:    -8.281      0.000      0.000
 INTER + INTRA:         -11.522
 INTER:                 -10.459
 INTRA:                  -1.062
 UNBOUND:                -1.062
  5 active torsions:
  status: ('A' for Active; 'I' for Inactive)
    1  A    between atoms: C_6  and  C_7 
    2  A    between atoms: C_12  and  O_19 
    3  A    between atoms: C_13  and  C_14 
    4  A    between atoms: C_14  and  O_21 
    5  A    between atoms: C_15  and  O_21 

>  <COMPND>
    /home/daniil/Downloads/ml_docking_review/databases/Vina/outputs/8ERS_WQO/8ERS_WQO.pdbqt 

>  <AUTHOR>
    GENERATED BY OPEN BABEL 3.2.1

>  <MASTER>
        0    0    0    0    0    0    0    0   24    0   24    0

$$$$
