../../databases/Vina/outputs/7MWN_WI5/7MWN_WI51.pdb
 OpenBabel08242612033D

 32 37  0  0  1  0  0  0  0  0999 V2000
   21.0770   -9.8590  -14.7580 C   0  0  0  0  0  0  0  0  0  0  0  0
   20.3570   -9.3090  -13.6830 C   0  0  0  0  0  0  0  0  0  0  0  0
   20.2130  -10.0050  -12.4730 C   0  0  0  0  0  0  0  0  0  0  0  0
   20.8170  -11.2510  -12.3910 C   0  0  0  0  0  0  0  0  0  0  0  0
   21.8160  -13.0060  -11.1080 C   0  0  0  0  0  0  0  0  0  0  0  0
   22.0490  -13.8030  -12.3890 C   0  0  2  0  0  0  0  0  0  0  0  0
   22.3710  -11.9030  -15.4530 C   0  0  0  0  0  0  0  0  0  0  0  0
   22.6410  -12.9980  -14.7140 C   0  0  0  0  0  0  0  0  0  0  0  0
   23.4250  -14.2510  -15.1030 C   0  0  0  0  0  0  0  0  0  0  0  0
   21.4870  -11.7100  -13.4620 C   0  0  0  0  0  0  0  0  0  0  0  0
   21.6400  -11.0740  -14.6460 C   0  0  0  0  0  0  0  0  0  0  0  0
   22.0890  -12.8820  -13.5060 N   0  0  0  0  0  0  0  0  0  0  0  0
   20.7350  -12.0390  -11.2470 O   0  0  0  0  0  0  0  0  0  0  0  0
   22.8350  -11.6960  -16.7320 C   0  0  0  0  0  0  0  0  0  0  0  0
   23.9680  -12.0620  -17.0610 O   0  0  0  0  0  0  0  0  0  0  0  0
   22.1410  -10.8650  -17.6280 C   0  0  0  0  0  0  0  0  0  0  0  0
   20.8910  -11.1560  -18.2170 C   0  0  0  0  0  0  0  0  0  0  0  0
   20.3080  -10.2310  -19.0930 C   0  0  0  0  0  0  0  0  0  0  0  0
   20.2140  -12.3470  -17.9450 C   0  0  0  0  0  0  0  0  0  0  0  0
   19.0650  -10.4860  -19.6830 C   0  0  0  0  0  0  0  0  0  0  0  0
   20.9530   -9.0350  -19.3880 C   0  0  0  0  0  0  0  0  0  0  0  0
   18.4030  -11.6760  -19.4040 C   0  0  0  0  0  0  0  0  0  0  0  0
   18.9770  -12.6030  -18.5380 C   0  0  0  0  0  0  0  0  0  0  0  0
   22.1860   -8.7540  -18.8210 C   0  0  0  0  0  0  0  0  0  0  0  0
   22.7720   -9.6670  -17.9490 C   0  0  0  0  0  0  0  0  0  0  0  0
   20.9020  -14.8130  -12.6360 C   0  0  0  0  0  0  0  0  0  0  0  0
   19.6940  -14.1300  -13.1320 N   0  0  0  0  0  0  0  0  0  0  0  0
   18.5030  -14.2930  -12.2720 C   0  0  0  0  0  0  0  0  0  0  0  0
   17.4090  -13.3590  -12.7920 C   0  0  0  0  0  0  0  0  0  0  0  0
   17.1140  -13.6590  -14.1810 O   0  0  0  0  0  0  0  0  0  0  0  0
   18.2740  -13.5710  -15.0230 C   0  0  0  0  0  0  0  0  0  0  0  0
   19.3600  -14.5020  -14.5070 C   0  0  0  0  0  0  0  0  0  0  0  0
  1 11  2  0  0  0  0
  1  2  1  0  0  0  0
  2  3  2  0  0  0  0
  3  4  1  0  0  0  0
  4 10  2  0  0  0  0
  4 13  1  0  0  0  0
  5  6  1  0  0  0  0
  5 13  1  0  0  0  0
  6 12  1  0  0  0  0
  6 26  1  6  0  0  0
  7 14  1  0  0  0  0
  7  8  2  0  0  0  0
  7 11  1  0  0  0  0
  8  9  1  0  0  0  0
  8 12  1  0  0  0  0
 10 11  1  0  0  0  0
 10 12  1  0  0  0  0
 14 16  1  0  0  0  0
 14 15  2  0  0  0  0
 16 17  2  0  0  0  0
 16 25  1  0  0  0  0
 17 18  1  0  0  0  0
 17 19  1  0  0  0  0
 18 20  1  0  0  0  0
 18 21  2  0  0  0  0
 19 23  2  0  0  0  0
 20 22  2  0  0  0  0
 21 24  1  0  0  0  0
 22 23  1  0  0  0  0
 24 25  2  0  0  0  0
 26 27  1  0  0  0  0
 27 32  1  0  0  0  0
 27 28  1  0  0  0  0
 28 29  1  0  0  0  0
 29 30  1  0  0  0  0
 30 31  1  0  0  0  0
 31 32  1  0  0  0  0
M  END
>  <MODEL>
1

>  <REMARK>
 VINA RESULT:   -12.350      0.000      0.000
 INTER + INTRA:         -15.920
 INTER:                 -15.238
 INTRA:                  -0.682
 UNBOUND:                -0.682
  4 active torsions:
  status: ('A' for Active; 'I' for Inactive)
    1  A    between atoms: C_7  and  C_8 
    2  A    between atoms: C_8  and  N_29 
    3  A    between atoms: C_14  and  C_22 
    4  A    between atoms: C_22  and  C_23 

>  <COMPND>
    /home/daniil/Downloads/ml_docking_review/databases/Vina/outputs/7MWN_WI5/7MWN_WI5.pdbqt 

>  <AUTHOR>
    GENERATED BY OPEN BABEL 3.2.1

>  <MASTER>
        0    0    0    0    0    0    0    0   32    0   32    0

$$$$
