../../databases/Vina/outputs/7TBU_S3P/7TBU_S3P1.pdb
 OpenBabel08242616453D

 18 18  0  0  1  0  0  0  0  0999 V2000
   17.8930   65.6200    5.3220 C   0  0  0  0  0  0  0  0  0  0  0  0
   18.5130   64.3420    6.0650 C   0  0  0  0  0  0  0  0  0  0  0  0
   18.5480   64.3010    7.5100 C   0  0  2  0  0  0  0  0  0  0  0  0
   17.5380   65.3970    8.2130 C   0  0  2  0  0  0  0  0  0  0  0  0
   17.6970   66.6730    7.7120 C   0  0  1  0  0  0  0  0  0  0  0  0
   17.4540   66.7730    6.0790 C   0  0  0  0  0  0  0  0  0  0  0  0
   19.8630   64.5590    7.9240 O   0  0  0  0  0  0  0  0  0  0  0  0
   20.9670   63.3250    8.0030 P   0  0  0  0  0  0  0  0  0  0  0  0
   21.8050   63.2730    6.7470 O   0  0  0  0  0  0  0  0  0  0  0  0
   20.1960   62.0320    8.1440 O   0  0  0  0  0  0  0  0  0  0  0  0
   21.8260   63.5990    9.2030 O   0  0  0  0  0  0  0  0  0  0  0  0
   17.8550   65.4050    9.6110 O   0  0  0  0  0  0  0  0  0  0  0  0
   17.9780   66.3030    9.8940 H   0  0  0  0  0  0  0  0  0  0  0  0
   18.1280   65.7610    3.8180 C   0  0  0  0  0  0  0  0  0  0  0  0
   18.9640   66.6030    3.3980 O   0  0  0  0  0  0  0  0  0  0  0  0
   17.4890   65.0390    3.0080 O   0  0  0  0  0  0  0  0  0  0  0  0
   16.7540   67.5600    8.3390 O   0  0  0  0  0  0  0  0  0  0  0  0
   16.5400   68.2370    7.7080 H   0  0  0  0  0  0  0  0  0  0  0  0
  1 14  1  0  0  0  0
  1  2  2  0  0  0  0
  1  6  1  0  0  0  0
  2  3  1  0  0  0  0
  3  7  1  1  0  0  0
  3  4  1  0  0  0  0
  4  5  1  0  0  0  0
  4 12  1  1  0  0  0
  5  6  1  0  0  0  0
  5 17  1  1  0  0  0
  7  8  1  0  0  0  0
  8  9  2  0  0  0  0
  8 10  1  0  0  0  0
  8 11  1  0  0  0  0
 12 13  1  0  0  0  0
 14 16  2  0  0  0  0
 14 15  1  0  0  0  0
 17 18  1  0  0  0  0
M  END
>  <MODEL>
1

>  <REMARK>
 VINA RESULT:    -7.296      0.000      0.000
 INTER + INTRA:          -9.282
 INTER:                  -9.003
 INTRA:                  -0.280
 UNBOUND:                -0.280
  5 active torsions:
  status: ('A' for Active; 'I' for Inactive)
    1  A    between atoms: C_1  and  C_7 
    2  A    between atoms: C_3  and  O_8 
    3  A    between atoms: C_4  and  O_9 
    4  A    between atoms: C_5  and  O_11 
    5  A    between atoms: O_8  and  P_15 

>  <COMPND>
    /home/daniil/Downloads/ml_docking_review/databases/Vina/outputs/7TBU_S3P/7TBU_S3P.pdbqt 

>  <AUTHOR>
    GENERATED BY OPEN BABEL 3.2.1

>  <MASTER>
        0    0    0    0    0    0    0    0   18    0   18    0

$$$$
