../../databases/Vina/outputs/7MSR_DCA/7MSR_DCA1.pdb
 OpenBabel08242612033D

 56 58  0  0  1  0  0  0  0  0999 V2000
    9.2410   10.1480   17.4680 C   0  0  0  0  0  0  0  0  0  0  0  0
    9.4910   10.1940   18.8810 O   0  0  0  0  0  0  0  0  0  0  0  0
   10.4200   11.2980   19.5350 P   0  0  2  0  0  0  0  0  0  0  0  0
    9.6910   12.0950   20.5430 O   0  0  0  0  0  0  0  0  0  0  0  0
   11.0800   12.0450   18.3760 O   0  0  0  0  0  0  0  0  0  0  0  0
   11.5430   10.4200   20.2370 O   0  0  0  0  0  0  0  0  0  0  0  0
   12.5670   10.6470   21.4330 P   0  0  1  0  0  0  0  0  0  0  0  0
   11.7240   10.8420   22.7250 O   0  0  0  0  0  0  0  0  0  0  0  0
   13.6380    9.6390   21.4550 O   0  0  0  0  0  0  0  0  0  0  0  0
   13.2360   12.0370   21.0840 O   0  0  0  0  0  0  0  0  0  0  0  0
   14.6500   12.1820   20.9080 C   0  0  0  0  0  0  0  0  0  0  0  0
   14.9320   13.1520   19.7640 C   0  0  0  0  0  0  0  0  0  0  0  0
   13.8330   14.2270   19.7180 C   0  0  0  0  0  0  0  0  0  0  0  0
   16.2950   13.8260   19.9940 C   0  0  0  0  0  0  0  0  0  0  0  0
   14.9690   12.3800   18.4210 C   0  0  1  0  0  0  0  0  0  0  0  0
   15.5240   13.1850   17.3900 O   0  0  0  0  0  0  0  0  0  0  0  0
   15.3880   14.1080   17.5700 H   0  0  0  0  0  0  0  0  0  0  0  0
   15.6740   11.0290   18.4620 C   0  0  0  0  0  0  0  0  0  0  0  0
   14.8900    9.9510   18.4480 N   0  0  0  0  0  0  0  0  0  0  0  0
   13.8790   10.0830   18.4060 H   0  0  0  0  0  0  0  0  0  0  0  0
   16.8980   10.9730   18.5140 O   0  0  0  0  0  0  0  0  0  0  0  0
   15.4160    8.5940   18.4890 C   0  0  0  0  0  0  0  0  0  0  0  0
   14.3880    7.5950   19.0070 C   0  0  0  0  0  0  0  0  0  0  0  0
   14.8520    6.1740   18.8360 C   0  0  0  0  0  0  0  0  0  0  0  0
   14.0670    5.2290   18.8510 O   0  0  0  0  0  0  0  0  0  0  0  0
   16.1630    6.0310   18.6620 N   0  0  0  0  0  0  0  0  0  0  0  0
   16.7760    6.8410   18.7460 H   0  0  0  0  0  0  0  0  0  0  0  0
   16.7290    4.7250   18.3510 C   0  0  0  0  0  0  0  0  0  0  0  0
   17.0920    4.6130   16.9280 C   0  0  0  0  0  0  0  0  0  0  0  0
    8.5140    8.8600   17.1700 C   0  0  2  0  0  0  0  0  0  0  0  0
    6.9870    9.0090   17.0830 C   0  0  2  0  0  0  0  0  0  0  0  0
    6.4570    8.2230   18.2820 C   0  0  2  0  0  0  0  0  0  0  0  0
    7.5660    7.1880   18.4290 C   0  0  1  0  0  0  0  0  0  0  0  0
    8.7650    7.9030   18.2210 O   0  0  0  0  0  0  0  0  0  0  0  0
    6.5460    8.3460   15.8810 O   0  0  0  0  0  0  0  0  0  0  0  0
    5.5800    8.9860   14.7900 P   0  0  0  0  0  0  0  0  0  0  0  0
    4.9600    7.7950   14.0480 O   0  0  0  0  0  0  0  0  0  0  0  0
    4.5500    9.8500   15.4410 O   0  0  0  0  0  0  0  0  0  0  0  0
    6.4790    9.7570   13.8210 O   0  0  0  0  0  0  0  0  0  0  0  0
    5.2260    7.5700   18.0000 O   0  0  0  0  0  0  0  0  0  0  0  0
    5.3350    6.6350   17.8750 H   0  0  0  0  0  0  0  0  0  0  0  0
    7.6360    6.5190   19.7170 N   0  0  0  0  0  0  0  0  0  0  0  0
    7.3610    5.2050   20.0050 C   0  0  0  0  0  0  0  0  0  0  0  0
    7.5260    4.8960   21.2650 N   0  0  0  0  0  0  0  0  0  0  0  0
    7.9330    6.0750   21.8520 C   0  0  0  0  0  0  0  0  0  0  0  0
    7.3850    3.9900   21.7120 H   0  0  0  0  0  0  0  0  0  0  0  0
    8.2690    6.4250   23.1750 C   0  0  2  0  0  0  0  0  0  0  0  0
    8.0120    7.0910   20.9100 C   0  0  0  0  0  0  0  0  0  0  0  0
    8.2160    5.5280   24.1760 N   0  0  0  0  0  0  0  0  0  0  0  0
    8.6500    7.6970   23.4250 N   0  0  0  0  0  0  0  0  0  0  0  0
    7.9290    4.5670   23.9870 H   0  0  0  0  0  0  0  0  0  0  0  0
    8.4590    5.7810   25.1330 H   0  0  0  0  0  0  0  0  0  0  0  0
    8.6780    8.5650   22.4090 C   0  0  0  0  0  0  0  0  0  0  0  0
    8.9110    7.9880   24.3670 H   0  0  0  0  0  0  0  0  0  0  0  0
    8.3760    8.3580   21.1230 N   0  0  0  0  0  0  0  0  0  0  0  0
    8.4180    9.0750   20.3980 H   0  0  0  0  0  0  0  0  0  0  0  0
  1  2  1  0  0  0  0
  2  3  1  0  0  0  0
  3  5  2  6  0  0  0
  3  6  1  0  0  0  0
  3  4  1  0  0  0  0
  6  7  1  0  0  0  0
  7 10  1  0  0  0  0
  7  9  2  1  0  0  0
  7  8  1  0  0  0  0
 10 11  1  0  0  0  0
 11 12  1  0  0  0  0
 12 15  1  0  0  0  0
 12 13  1  0  0  0  0
 12 14  1  0  0  0  0
 15 16  1  6  0  0  0
 15 18  1  0  0  0  0
 16 17  1  0  0  0  0
 18 19  1  0  0  0  0
 18 21  2  0  0  0  0
 19 20  1  0  0  0  0
 19 22  1  0  0  0  0
 22 23  1  0  0  0  0
 23 24  1  0  0  0  0
 24 26  1  0  0  0  0
 24 25  2  0  0  0  0
 26 28  1  0  0  0  0
 26 27  1  0  0  0  0
 28 29  1  0  0  0  0
 30  1  1  1  0  0  0
 30 31  1  0  0  0  0
 30 34  1  0  0  0  0
 31 35  1  6  0  0  0
 31 32  1  0  0  0  0
 32 40  1  6  0  0  0
 32 33  1  0  0  0  0
 33 34  1  0  0  0  0
 33 42  1  1  0  0  0
 35 36  1  0  0  0  0
 36 39  2  0  0  0  0
 36 37  1  0  0  0  0
 36 38  1  0  0  0  0
 40 41  1  0  0  0  0
 42 43  1  0  0  0  0
 42 48  1  0  0  0  0
 43 44  1  0  0  0  0
 44 46  1  0  0  0  0
 44 45  1  0  0  0  0
 45 48  2  0  0  0  0
 45 47  1  0  0  0  0
 47 50  1  0  0  0  0
 47 49  1  1  0  0  0
 48 55  1  0  0  0  0
 49 51  1  0  0  0  0
 49 52  1  0  0  0  0
 50 53  1  0  0  0  0
 50 54  1  0  0  0  0
 53 55  1  0  0  0  0
 55 56  1  0  0  0  0
M  END
>  <MODEL>
1

>  <REMARK>
 VINA RESULT:    -8.423      0.000      0.000
 INTER + INTRA:         -20.635
 INTER:                 -17.286
 INTRA:                  -3.349
 UNBOUND:                -3.349
  19 active torsions:
  status: ('A' for Active; 'I' for Inactive)
    1  A    between atoms: N_15  and  C_16 
    2  A    between atoms: C_17  and  O_18 
    3  A    between atoms: C_20  and  O_21 
    4  A    between atoms: O_21  and  P_22 
    5  A    between atoms: C_26  and  C_28 
    6  A    between atoms: C_28  and  O_29 
    7  A    between atoms: O_29  and  P_30 
    8  A    between atoms: P_30  and  O_33 
    9  A    between atoms: O_33  and  P_34 
   10  A    between atoms: P_34  and  O_37 
   11  A    between atoms: O_37  and  C_39 
   12  A    between atoms: C_38  and  C_39 
   13  A    between atoms: C_38  and  C_42 
   14  A    between atoms: C_42  and  O_43 
   15  A    between atoms: C_42  and  C_45 
       I    between atoms: C_45  and  N_47 
   16  A    between atoms: N_47  and  C_49 
   17  A    between atoms: C_49  and  C_50 
   18  A    between atoms: C_50  and  C_51 
       I    between atoms: C_51  and  N_53 
   19  A    between atoms: N_53  and  C_55 

>  <COMPND>
    /home/daniil/Downloads/ml_docking_review/databases/Vina/outputs/7MSR_DCA/7MSR_DCA.pdbqt 

>  <AUTHOR>
    GENERATED BY OPEN BABEL 3.2.1

>  <MASTER>
        0    0    0    0    0    0    0    0   56    0   56    0

$$$$
