../../databases/Vina/outputs/7W06_ITN/7W06_ITN1.pdb
 OpenBabel08242616453D

  9  8  0  0  0  0  0  0  0  0999 V2000
  -20.6470   17.6060   27.0730 C   0  0  0  0  0  0  0  0  0  0  0  0
  -20.9540   17.6860   25.7890 C   0  0  0  0  0  0  0  0  0  0  0  0
  -21.6040   16.8940   28.0330 C   0  0  0  0  0  0  0  0  0  0  0  0
  -20.8460   15.8950   28.8980 C   0  0  0  0  0  0  0  0  0  0  0  0
  -20.8760   15.9760   30.1500 O   0  0  0  0  0  0  0  0  0  0  0  0
  -20.1890   14.9970   28.3220 O   0  0  0  0  0  0  0  0  0  0  0  0
  -19.3820   18.2450   27.6010 C   0  0  0  0  0  0  0  0  0  0  0  0
  -19.3740   18.7390   28.7680 O   0  0  0  0  0  0  0  0  0  0  0  0
  -18.3470   18.2950   26.8650 O   0  0  0  0  0  0  0  0  0  0  0  0
  1  2  2  0  0  0  0
  1  7  1  0  0  0  0
  1  3  1  0  0  0  0
  3  4  1  0  0  0  0
  4  6  2  0  0  0  0
  4  5  1  0  0  0  0
  7  9  2  0  0  0  0
  7  8  1  0  0  0  0
M  END
>  <MODEL>
1

>  <REMARK>
 VINA RESULT:    -6.235      0.000      0.000
 INTER + INTRA:          -7.373
 INTER:                  -7.329
 INTRA:                  -0.044
 UNBOUND:                -0.044
  3 active torsions:
  status: ('A' for Active; 'I' for Inactive)
    1  A    between atoms: C_1  and  C_2 
    2  A    between atoms: C_2  and  C_3 
    3  A    between atoms: C_3  and  C_4 

>  <COMPND>
    /home/daniil/Downloads/ml_docking_review/databases/Vina/outputs/7W06_ITN/7W06_ITN.pdbqt 

>  <AUTHOR>
    GENERATED BY OPEN BABEL 3.2.1

>  <MASTER>
        0    0    0    0    0    0    0    0    9    0    9    0

$$$$
