../../databases/Vina/outputs/6Z14_Q4Z/6Z14_Q4Z1.pdb
 OpenBabel08242616453D

 22 23  0  0  1  0  0  0  0  0999 V2000
   17.2540    7.9000   11.0640 C   0  0  1  0  0  0  0  0  0  0  0  0
   17.6040    7.7790    9.6330 C   0  0  1  0  0  0  0  0  0  0  0  0
   17.7330    9.1550    8.9910 C   0  0  2  0  0  0  0  0  0  0  0  0
   16.5250   10.0000    9.3460 C   0  0  1  0  0  0  0  0  0  0  0  0
   16.4210   10.1720   10.8580 C   0  0  2  0  0  0  0  0  0  0  0  0
   19.5230    7.3900   10.9020 C   0  0  1  0  0  0  0  0  0  0  0  0
   20.9200    7.0740   11.3010 C   0  0  0  0  0  0  0  0  0  0  0  0
   18.9580    7.1660    9.6570 N   0  0  0  0  0  4  0  0  0  0  0  0
   19.5500    7.4960    8.8940 H   0  0  0  0  0  0  0  0  0  0  0  0
   18.9440    6.1770    9.4060 H   0  0  0  0  0  0  0  0  0  0  0  0
   18.5490    7.9680   11.7480 O   0  0  0  0  0  0  0  0  0  0  0  0
   16.3900    8.9090   11.5610 O   0  0  0  0  0  0  0  0  0  0  0  0
   15.1730   10.9290   11.2490 C   0  0  0  0  0  0  0  0  0  0  0  0
   15.1920   11.0350   12.6930 O   0  0  0  0  0  0  0  0  0  0  0  0
   13.8910   11.5460   13.4180 S   0  0  0  0  0  0  0  0  0  0  0  0
   13.2920   12.4520   12.4650 O   0  0  0  0  0  0  0  0  0  0  0  0
   13.1430   10.3790   13.7400 O   0  0  0  0  0  0  0  0  0  0  0  0
   14.3270   12.2240   14.6200 O   0  0  0  0  0  0  0  0  0  0  0  0
   16.7320   11.2890    8.7750 O   0  0  0  0  0  0  0  0  0  0  0  0
   15.8750   11.6740    8.6350 H   0  0  0  0  0  0  0  0  0  0  0  0
   17.8060    9.0230    7.5840 O   0  0  0  0  0  0  0  0  0  0  0  0
   16.9720    8.7210    7.2450 H   0  0  0  0  0  0  0  0  0  0  0  0
  1  2  1  0  0  0  0
  1 12  1  6  0  0  0
  1 11  1  0  0  0  0
  2  3  1  0  0  0  0
  2  8  1  1  0  0  0
  3 21  1  6  0  0  0
  3  4  1  0  0  0  0
  4 19  1  6  0  0  0
  4  5  1  0  0  0  0
  5 13  1  6  0  0  0
  5 12  1  0  0  0  0
  6  8  1  0  0  0  0
  6  7  1  1  0  0  0
  6 11  1  0  0  0  0
  8  9  1  0  0  0  0
  8 10  1  0  0  0  0
 13 14  1  0  0  0  0
 14 15  1  0  0  0  0
 15 16  1  0  0  0  0
 15 17  1  0  0  0  0
 15 18  1  0  0  0  0
 19 20  1  0  0  0  0
 21 22  1  0  0  0  0
M  END
>  <MODEL>
1

>  <REMARK>
 VINA RESULT:    -7.845      0.000      0.000
 INTER + INTRA:          -9.909
 INTER:                  -9.679
 INTRA:                  -0.230
 UNBOUND:                -0.230
  5 active torsions:
  status: ('A' for Active; 'I' for Inactive)
    1  A    between atoms: S_3  and  O_22 
    2  A    between atoms: C_7  and  O_17 
    3  A    between atoms: C_8  and  O_19 
    4  A    between atoms: C_9  and  C_10 
    5  A    between atoms: C_10  and  O_22 

>  <COMPND>
    /home/daniil/Downloads/ml_docking_review/databases/Vina/outputs/6Z14_Q4Z/6Z14_Q4Z.pdbqt 

>  <AUTHOR>
    GENERATED BY OPEN BABEL 3.2.1

>  <MASTER>
        0    0    0    0    0    0    0    0   22    0   22    0

$$$$
