../../databases/Vina/outputs/7ROU_66I/7ROU_66I1.pdb
 OpenBabel08242616453D

 49 52  0  0  1  0  0  0  0  0999 V2000
   61.1380   19.9620   44.0740 C   0  0  1  0  0  0  0  0  0  0  0  0
   61.3120   17.8050   43.3140 C   0  0  2  0  0  0  0  0  0  0  0  0
   62.7000   18.1200   43.9010 C   0  0  2  0  0  0  0  0  0  0  0  0
   62.2510   19.2030   44.8600 C   0  0  1  0  0  0  0  0  0  0  0  0
   60.5520   18.9600   43.2680 O   0  0  0  0  0  0  0  0  0  0  0  0
   60.5580   16.9540   44.3340 C   0  0  0  0  0  0  0  0  0  0  0  0
   61.2800   16.0150   44.8170 O   0  0  0  0  0  0  0  0  0  0  0  0
   61.3920   14.4790   44.0350 S   0  0  0  0  0  0  0  0  0  0  0  0
   61.1390   13.4560   44.9760 O   0  0  0  0  0  0  0  0  0  0  0  0
   60.5050   14.5810   42.9720 O   0  0  0  0  0  0  0  0  0  0  0  0
   62.9630   14.5890   43.5450 N   0  0  0  0  0  0  0  0  0  0  0  0
   64.0010   14.6430   44.3990 C   0  0  0  0  0  0  0  0  0  0  0  0
   63.8800   14.6180   45.6110 O   0  0  0  0  0  0  0  0  0  0  0  0
   63.1570   14.6160   42.5450 H   0  0  0  0  0  0  0  0  0  0  0  0
   65.3460   14.7140   43.6910 C   0  0  1  0  0  0  0  0  0  0  0  0
   66.3330   13.9090   44.4660 N   0  0  0  0  0  4  0  0  0  0  0  0
   67.0110   14.5070   44.9370 H   0  0  0  0  0  0  0  0  0  0  0  0
   65.9010   13.4810   45.2850 H   0  0  0  0  0  0  0  0  0  0  0  0
   66.7950   13.2110   43.8830 H   0  0  0  0  0  0  0  0  0  0  0  0
   65.1360   14.1470   42.2490 C   0  0  0  0  0  0  0  0  0  0  0  0
   66.4400   14.1180   41.4540 C   0  0  0  0  0  0  0  0  0  0  0  0
   66.9970   15.3260   41.0440 C   0  0  0  0  0  0  0  0  0  0  0  0
   68.1930   15.3860   40.3270 C   0  0  0  0  0  0  0  0  0  0  0  0
   68.8520   14.1870   39.9520 C   0  0  0  0  0  0  0  0  0  0  0  0
   68.3290   12.9470   40.3620 C   0  0  0  0  0  0  0  0  0  0  0  0
   67.1260   12.8980   41.1050 C   0  0  0  0  0  0  0  0  0  0  0  0
   70.0240   14.2520   39.2550 O   0  0  0  0  0  0  0  0  0  0  0  0
   70.8470   14.0940   39.7040 H   0  0  0  0  0  0  0  0  0  0  0  0
   63.5370   18.6610   42.9270 O   0  0  0  0  0  0  0  0  0  0  0  0
   63.1340   18.5830   42.0700 H   0  0  0  0  0  0  0  0  0  0  0  0
   63.3320   20.0630   45.0530 O   0  0  0  0  0  0  0  0  0  0  0  0
   63.5020   20.4950   44.2240 H   0  0  0  0  0  0  0  0  0  0  0  0
   60.2390   20.5110   45.1010 N   0  0  0  0  0  0  0  0  0  0  0  0
   59.2150   19.7870   45.6680 N   0  0  0  0  0  0  0  0  0  0  0  0
   58.6850   20.5610   46.6620 C   0  0  2  0  0  0  0  0  0  0  0  0
   58.9100   18.8510   45.3980 H   0  0  0  0  0  0  0  0  0  0  0  0
   59.4340   21.7910   46.7860 C   0  0  0  0  0  0  0  0  0  0  0  0
   59.4120   22.9920   47.5950 C   0  0  1  0  0  0  0  0  0  0  0  0
   60.4350   21.7110   45.7840 C   0  0  0  0  0  0  0  0  0  0  0  0
   58.4690   23.1650   48.6100 N   0  0  0  0  0  0  0  0  0  0  0  0
   60.3600   23.9270   47.3650 N   0  0  0  0  0  0  0  0  0  0  0  0
   61.2980   23.7470   46.3680 C   0  0  0  0  0  0  0  0  0  0  0  0
   60.3830   24.7740   47.9340 H   0  0  0  0  0  0  0  0  0  0  0  0
   61.3860   22.6650   45.5470 N   0  0  0  0  0  0  0  0  0  0  0  0
   62.0970   22.5740   44.8210 H   0  0  0  0  0  0  0  0  0  0  0  0
   57.6190   20.1790   47.4200 O   0  0  0  0  0  0  0  0  0  0  0  0
   56.8700   19.0510   47.0620 C   0  0  0  0  0  0  0  0  0  0  0  0
   56.0780   19.3890   46.0230 F   0  0  0  0  0  0  0  0  0  0  0  0
   56.0300   18.8230   48.0910 F   0  0  0  0  0  0  0  0  0  0  0  0
  1  5  1  0  0  0  0
  1  4  1  0  0  0  0
  1 33  1  1  0  0  0
  2  5  1  0  0  0  0
  2  3  1  0  0  0  0
  2  6  1  1  0  0  0
  3 29  1  6  0  0  0
  3  4  1  0  0  0  0
  4 31  1  6  0  0  0
  6  7  1  0  0  0  0
  7  8  1  0  0  0  0
  8 10  1  0  0  0  0
  8 11  1  0  0  0  0
  8  9  1  0  0  0  0
 11 14  1  0  0  0  0
 11 12  1  0  0  0  0
 12 15  1  0  0  0  0
 12 13  2  0  0  0  0
 15 20  1  6  0  0  0
 15 16  1  0  0  0  0
 16 19  1  0  0  0  0
 16 17  1  0  0  0  0
 16 18  1  0  0  0  0
 20 21  1  0  0  0  0
 21 22  2  0  0  0  0
 21 26  1  0  0  0  0
 22 23  1  0  0  0  0
 23 24  2  0  0  0  0
 24 27  1  0  0  0  0
 24 25  1  0  0  0  0
 25 26  2  0  0  0  0
 27 28  1  0  0  0  0
 29 30  1  0  0  0  0
 31 32  1  0  0  0  0
 33 34  1  0  0  0  0
 33 39  1  0  0  0  0
 34 36  1  0  0  0  0
 34 35  1  0  0  0  0
 35 37  1  0  0  0  0
 35 46  1  1  0  0  0
 37 39  2  0  0  0  0
 37 38  1  0  0  0  0
 38 41  1  0  0  0  0
 38 40  1  1  0  0  0
 39 44  1  0  0  0  0
 41 42  1  0  0  0  0
 41 43  1  0  0  0  0
 42 44  1  0  0  0  0
 44 45  1  0  0  0  0
 46 47  1  0  0  0  0
 47 48  1  0  0  0  0
 47 49  1  0  0  0  0
M  END
>  <MODEL>
1

>  <REMARK>
 VINA RESULT:   -11.531      0.000      0.000
 INTER + INTRA:         -21.159
 INTER:                 -19.621
 INTRA:                  -1.538
 UNBOUND:                -1.538
  14 active torsions:
  status: ('A' for Active; 'I' for Inactive)
    1  A    between atoms: C_1  and  N_33 
    2  A    between atoms: C_1  and  C_6 
    3  A    between atoms: C_1  and  C_10 
    4  A    between atoms: C_2  and  C_6 
    5  A    between atoms: C_5  and  O_41 
    6  A    between atoms: C_9  and  O_37 
       I    between atoms: C_10  and  N_31 
    7  A    between atoms: C_11  and  N_30 
    8  A    between atoms: C_12  and  C_13 
    9  A    between atoms: C_13  and  O_39 
   10  A    between atoms: C_18  and  O_37 
   11  A    between atoms: C_19  and  O_45 
   12  A    between atoms: C_20  and  O_47 
   13  A    between atoms: N_31  and  S_49 
   14  A    between atoms: O_39  and  S_49 

>  <COMPND>
    /home/daniil/Downloads/ml_docking_review/databases/Vina/outputs/7ROU_66I/7ROU_66I.pdbqt 

>  <AUTHOR>
    GENERATED BY OPEN BABEL 3.2.1

>  <MASTER>
        0    0    0    0    0    0    0    0   49    0   49    0

$$$$
