../../databases/Vina/outputs/7OZ9_NGK/7OZ9_NGK1.pdb
 OpenBabel08242612033D

 23 23  0  0  1  0  0  0  0  0999 V2000
   34.7410   37.7510   30.7370 C   0  0  2  0  0  0  0  0  0  0  0  0
   34.2110   37.7680   32.1750 C   0  0  1  0  0  0  0  0  0  0  0  0
   33.5940   39.1230   32.5240 C   0  0  2  0  0  0  0  0  0  0  0  0
   34.5630   40.2550   32.1920 C   0  0  2  0  0  0  0  0  0  0  0  0
   35.0070   40.1380   30.7370 C   0  0  2  0  0  0  0  0  0  0  0  0
   35.6150   38.8490   30.4980 O   0  0  0  0  0  0  0  0  0  0  0  0
   33.2810   36.6770   32.3990 N   0  0  0  0  0  0  0  0  0  0  0  0
   33.5720   35.6290   33.1750 C   0  0  0  0  0  0  0  0  0  0  0  0
   32.5590   34.5230   33.1840 C   0  0  0  0  0  0  0  0  0  0  0  0
   34.6130   35.5700   33.8290 O   0  0  0  0  0  0  0  0  0  0  0  0
   32.3680   36.7120   31.9460 H   0  0  0  0  0  0  0  0  0  0  0  0
   33.2600   39.2030   33.9020 O   0  0  0  0  0  0  0  0  0  0  0  0
   32.9730   40.0890   34.0930 H   0  0  0  0  0  0  0  0  0  0  0  0
   33.6670   37.7790   29.8380 O   0  0  0  0  0  0  0  0  0  0  0  0
   33.9810   37.6930   28.9460 H   0  0  0  0  0  0  0  0  0  0  0  0
   35.7250   40.1520   33.1050 O   0  0  0  0  0  0  0  0  0  0  0  0
   36.0300   41.3470   34.1230 S   0  0  0  0  0  0  0  0  0  0  0  0
   36.5860   42.4120   33.3180 O   0  0  0  0  0  0  0  0  0  0  0  0
   34.7470   41.6730   34.6850 O   0  0  0  0  0  0  0  0  0  0  0  0
   36.9660   40.8460   35.0820 O   0  0  0  0  0  0  0  0  0  0  0  0
   36.0260   41.1850   30.3540 C   0  0  0  0  0  0  0  0  0  0  0  0
   37.3280   40.8150   30.8030 O   0  0  0  0  0  0  0  0  0  0  0  0
   37.3580   39.8920   31.0300 H   0  0  0  0  0  0  0  0  0  0  0  0
  1 14  1  6  0  0  0
  1  6  1  0  0  0  0
  1  2  1  0  0  0  0
  2  7  1  6  0  0  0
  2  3  1  0  0  0  0
  3  4  1  0  0  0  0
  3 12  1  1  0  0  0
  4  5  1  0  0  0  0
  4 16  1  1  0  0  0
  5 21  1  1  0  0  0
  5  6  1  0  0  0  0
  7 11  1  0  0  0  0
  7  8  1  0  0  0  0
  8  9  1  0  0  0  0
  8 10  2  0  0  0  0
 12 13  1  0  0  0  0
 14 15  1  0  0  0  0
 16 17  1  0  0  0  0
 17 18  1  0  0  0  0
 17 19  1  0  0  0  0
 17 20  1  0  0  0  0
 21 22  1  0  0  0  0
 22 23  1  0  0  0  0
M  END
>  <MODEL>
1

>  <REMARK>
 VINA RESULT:    -7.024      0.000      0.000
 INTER + INTRA:         -10.384
 INTER:                  -9.282
 INTRA:                  -1.102
 UNBOUND:                -1.102
  7 active torsions:
  status: ('A' for Active; 'I' for Inactive)
    1  A    between atoms: C_1  and  O_11 
    2  A    between atoms: C_2  and  N_9 
    3  A    between atoms: C_3  and  O_13 
    4  A    between atoms: C_4  and  O_15 
    5  A    between atoms: C_5  and  C_6 
    6  A    between atoms: C_6  and  O_17 
       I    between atoms: C_7  and  N_9 
    7  A    between atoms: O_15  and  S_20 

>  <COMPND>
    /home/daniil/Downloads/ml_docking_review/databases/Vina/outputs/7OZ9_NGK/7OZ9_NGK.pdbqt 

>  <AUTHOR>
    GENERATED BY OPEN BABEL 3.2.1

>  <MASTER>
        0    0    0    0    0    0    0    0   23    0   23    0

$$$$
