../../databases/Vina/outputs/7KLX_WOV/7KLX_WOV1.pdb
 OpenBabel08242611493D

 18 19  0  0  0  0  0  0  0  0999 V2000
   36.7020   31.4850   23.7030 C   0  0  0  0  0  0  0  0  0  0  0  0
   37.1580   32.2940   22.6420 C   0  0  0  0  0  0  0  0  0  0  0  0
   36.3290   32.4890   21.5400 C   0  0  0  0  0  0  0  0  0  0  0  0
   35.0840   31.8810   21.4790 C   0  0  0  0  0  0  0  0  0  0  0  0
   34.6400   31.0890   22.5280 C   0  0  0  0  0  0  0  0  0  0  0  0
   35.4430   30.8950   23.6390 C   0  0  0  0  0  0  0  0  0  0  0  0
   37.5350   31.2180   24.8490 N   0  0  0  0  0  0  0  0  0  0  0  0
   37.5410   31.9800   26.0210 C   0  0  0  0  0  0  0  0  0  0  0  0
   38.4330   31.3950   26.8730 C   0  0  0  0  0  0  0  0  0  0  0  0
   36.6830   33.1910   26.1870 C   0  0  0  0  0  0  0  0  0  0  0  0
   38.9820   30.2620   26.2360 C   0  0  0  0  0  0  0  0  0  0  0  0
   38.4330   30.1590   24.9860 C   0  0  0  0  0  0  0  0  0  0  0  0
   38.6800   29.1760   23.8970 C   0  0  0  0  0  0  0  0  0  0  0  0
   38.5070   32.9310   22.6250 C   0  0  0  0  0  0  0  0  0  0  0  0
   38.6140   34.0850   23.2110 O   0  0  0  0  0  0  0  0  0  0  0  0
   39.4300   32.4220   22.0540 O   0  0  0  0  0  0  0  0  0  0  0  0
   34.3170   32.0660   20.3660 O   0  0  0  0  0  0  0  0  0  0  0  0
   34.5170   31.5660   19.5840 H   0  0  0  0  0  0  0  0  0  0  0  0
  1  2  2  0  0  0  0
  1  6  1  0  0  0  0
  1  7  1  0  0  0  0
  2  3  1  0  0  0  0
  2 14  1  0  0  0  0
  3  4  2  0  0  0  0
  4 17  1  0  0  0  0
  4  5  1  0  0  0  0
  5  6  2  0  0  0  0
  7 12  1  0  0  0  0
  7  8  1  0  0  0  0
  8 10  1  0  0  0  0
  8  9  2  0  0  0  0
  9 11  1  0  0  0  0
 11 12  2  0  0  0  0
 12 13  1  0  0  0  0
 14 16  2  0  0  0  0
 14 15  1  0  0  0  0
 17 18  1  0  0  0  0
M  END
>  <MODEL>
1

>  <REMARK>
 VINA RESULT:    -5.644      0.000      0.000
 INTER + INTRA:          -7.370
 INTER:                  -6.469
 INTRA:                  -0.901
 UNBOUND:                -0.901
  3 active torsions:
  status: ('A' for Active; 'I' for Inactive)
    1  A    between atoms: C_7  and  N_17 
    2  A    between atoms: C_8  and  C_14 
    3  A    between atoms: C_11  and  O_15 

>  <COMPND>
    /home/daniil/Downloads/ml_docking_review/databases/Vina/outputs/7KLX_WOV/7KLX_WOV.pdbqt 

>  <AUTHOR>
    GENERATED BY OPEN BABEL 3.2.1

>  <MASTER>
        0    0    0    0    0    0    0    0   18    0   18    0

$$$$
