../../databases/Vina/outputs/7T0U_E3I/7T0U_E3I1.pdb
 OpenBabel08242611493D

 54 59  0  0  1  0  0  0  0  0999 V2000
  -44.2250    0.5080   -1.2840 C   0  0  0  0  0  0  0  0  0  0  0  0
  -42.2790    0.5650    0.2140 C   0  0  0  0  0  0  0  0  0  0  0  0
  -41.0950    1.3100    0.6070 C   0  0  0  0  0  0  0  0  0  0  0  0
  -40.0080    1.0520    1.5640 C   0  0  0  0  0  0  0  0  0  0  0  0
  -39.1920    2.1580    1.3990 C   0  0  0  0  0  0  0  0  0  0  0  0
  -40.8270    2.5150   -0.0880 C   0  0  0  0  0  0  0  0  0  0  0  0
  -42.6220    2.3890   -1.3940 C   0  0  2  0  0  0  0  0  0  0  0  0
  -43.0030    1.1980   -0.8530 N   0  0  0  0  0  0  0  0  0  0  0  0
  -39.6850    3.0110    0.4580 N   0  0  0  0  0  0  0  0  0  0  0  0
  -41.5610    3.0920   -1.0610 N   0  0  0  0  0  0  0  0  0  0  0  0
  -41.3190    3.9820   -1.4950 H   0  0  0  0  0  0  0  0  0  0  0  0
  -42.6830   -0.4660    0.6630 O   0  0  0  0  0  0  0  0  0  0  0  0
  -39.0270    4.2020    0.1380 C   0  0  0  0  0  0  0  0  0  0  0  0
  -37.8870    4.0690   -0.8030 C   0  0  0  0  0  0  0  0  0  0  0  0
  -36.9970    5.0920   -0.8720 N   0  0  0  0  0  0  0  0  0  0  0  0
  -37.1220    5.8460   -0.1960 H   0  0  0  0  0  0  0  0  0  0  0  0
  -37.7860    3.0400   -1.4520 O   0  0  0  0  0  0  0  0  0  0  0  0
  -35.9160    5.2310   -1.7740 C   0  0  0  0  0  0  0  0  0  0  0  0
  -34.8200    5.9380   -1.3960 C   0  0  0  0  0  0  0  0  0  0  0  0
  -34.6350    6.6300    0.1500 Cl  0  0  0  0  0  0  0  0  0  0  0  0
  -33.7960    6.1610   -2.3220 C   0  0  0  0  0  0  0  0  0  0  0  0
  -33.8230    5.7000   -3.5720 N   0  0  0  0  0  0  0  0  0  0  0  0
  -34.9000    5.0050   -4.0150 C   0  0  0  0  0  0  0  0  0  0  0  0
  -33.0340    5.8720   -4.1960 H   0  0  0  0  0  0  0  0  0  0  0  0
  -35.9620    4.7470   -3.1080 C   0  0  0  0  0  0  0  0  0  0  0  0
  -34.9130    4.5240   -5.2660 N   0  0  0  0  0  0  0  0  0  0  0  0
  -34.0250    5.1340   -6.3610 C   0  0  0  0  0  0  0  0  0  0  0  0
  -33.7710    4.1470   -7.4300 C   0  0  0  0  0  0  0  0  0  0  0  0
  -35.0260    3.9910   -8.0690 N   0  0  2  0  0  0  0  0  0  0  0  0
  -35.9310    3.2160   -7.1990 C   0  0  0  0  0  0  0  0  0  0  0  0
  -36.1990    4.1250   -5.9350 C   0  0  2  0  0  0  0  0  0  0  0  0
  -37.0540    5.3280   -6.2530 C   0  0  0  0  0  0  0  0  0  0  0  0
  -34.7590    3.0120   -9.1770 C   0  0  0  0  0  0  0  0  0  0  0  0
  -33.7390    3.4760  -10.2410 C   0  0  0  0  0  0  0  0  0  0  0  0
  -34.7760    3.3780  -11.2670 O   0  0  0  0  0  0  0  0  0  0  0  0
  -35.7950    3.0170  -10.3000 C   0  0  0  0  0  0  0  0  0  0  0  0
  -39.7000    0.0030    2.5070 C   0  0  0  0  0  0  0  0  0  0  0  0
  -40.6750   -0.7680    3.1290 C   0  0  0  0  0  0  0  0  0  0  0  0
  -40.3660   -1.7820    4.0390 C   0  0  0  0  0  0  0  0  0  0  0  0
  -39.0020   -1.9940    4.3710 C   0  0  0  0  0  0  0  0  0  0  0  0
  -38.0580   -1.1950    3.7450 C   0  0  0  0  0  0  0  0  0  0  0  0
  -36.3740   -1.3970    4.1120 Cl  0  0  0  0  0  0  0  0  0  0  0  0
  -38.3730   -0.2490    2.8580 C   0  0  0  0  0  0  0  0  0  0  0  0
  -41.4900   -2.5560    4.6330 C   0  0  0  0  0  0  0  0  0  0  0  0
  -41.1530   -3.4940    5.5500 N   0  0  0  0  0  0  0  0  0  0  0  0
  -40.1750   -3.6980    5.7570 H   0  0  0  0  0  0  0  0  0  0  0  0
  -41.9230   -4.0240    5.9570 H   0  0  0  0  0  0  0  0  0  0  0  0
  -42.6660   -2.3100    4.3840 O   0  0  0  0  0  0  0  0  0  0  0  0
  -38.6660   -2.9230    5.2530 O   0  0  0  0  0  0  0  0  0  0  0  0
  -39.0210   -2.9350    6.1340 H   0  0  0  0  0  0  0  0  0  0  0  0
  -43.4710    2.9990   -2.4410 C   0  0  0  0  0  0  0  0  0  0  0  0
  -44.6680    3.3260   -2.1070 F   0  0  0  0  0  0  0  0  0  0  0  0
  -42.9540    4.1360   -2.9770 F   0  0  0  0  0  0  0  0  0  0  0  0
  -43.6090    2.2080   -3.5730 F   0  0  0  0  0  0  0  0  0  0  0  0
  1  8  1  0  0  0  0
  2  8  1  0  0  0  0
  2  3  1  0  0  0  0
  2 12  2  0  0  0  0
  3  6  2  0  0  0  0
  3  4  1  0  0  0  0
  4  5  2  0  0  0  0
  4 37  1  0  0  0  0
  5  9  1  0  0  0  0
  6 10  1  0  0  0  0
  6  9  1  0  0  0  0
  7 51  1  1  0  0  0
  7 10  1  0  0  0  0
  7  8  1  0  0  0  0
  9 13  1  0  0  0  0
 10 11  1  0  0  0  0
 13 14  1  0  0  0  0
 14 17  2  0  0  0  0
 14 15  1  0  0  0  0
 15 18  1  0  0  0  0
 15 16  1  0  0  0  0
 18 25  1  0  0  0  0
 18 19  2  0  0  0  0
 19 21  1  0  0  0  0
 19 20  1  0  0  0  0
 21 22  1  0  0  0  0
 22 24  1  0  0  0  0
 22 23  1  0  0  0  0
 23 26  1  0  0  0  0
 23 25  2  0  0  0  0
 26 27  1  0  0  0  0
 26 31  1  0  0  0  0
 27 28  1  0  0  0  0
 28 29  1  0  0  0  0
 29 33  1  6  0  0  0
 29 30  1  0  0  0  0
 30 31  1  0  0  0  0
 31 32  1  6  0  0  0
 33 36  1  0  0  0  0
 33 34  1  0  0  0  0
 34 35  1  0  0  0  0
 35 36  1  0  0  0  0
 37 43  2  0  0  0  0
 37 38  1  0  0  0  0
 38 39  2  0  0  0  0
 39 40  1  0  0  0  0
 39 44  1  0  0  0  0
 40 41  2  0  0  0  0
 40 49  1  0  0  0  0
 41 43  1  0  0  0  0
 41 42  1  0  0  0  0
 44 48  2  0  0  0  0
 44 45  1  0  0  0  0
 45 46  1  0  0  0  0
 45 47  1  0  0  0  0
 49 50  1  0  0  0  0
 51 54  1  0  0  0  0
 51 53  1  0  0  0  0
 51 52  1  0  0  0  0
M  END
>  <MODEL>
1

>  <REMARK>
 VINA RESULT:   -11.056      0.000      0.000
 INTER + INTRA:         -17.071
 INTER:                 -16.550
 INTRA:                  -0.521
 UNBOUND:                -0.521
  9 active torsions:
  status: ('A' for Active; 'I' for Inactive)
    1  A    between atoms: C_4  and  C_5 
    2  A    between atoms: C_8  and  O_48 
    3  A    between atoms: C_9  and  C_10 
       I    between atoms: C_10  and  N_35 
    4  A    between atoms: C_13  and  C_14 
    5  A    between atoms: C_13  and  N_38 
       I    between atoms: C_14  and  N_39 
    6  A    between atoms: C_15  and  N_39 
    7  A    between atoms: C_17  and  N_41 
    8  A    between atoms: C_21  and  N_42 
    9  A    between atoms: C_29  and  C_30 

>  <COMPND>
    /home/daniil/Downloads/ml_docking_review/databases/Vina/outputs/7T0U_E3I/7T0U_E3I.pdbqt 

>  <AUTHOR>
    GENERATED BY OPEN BABEL 3.2.1

>  <MASTER>
        0    0    0    0    0    0    0    0   54    0   54    0

$$$$
