../../databases/Vina/outputs/6XAF_GDP/6XAF_GDP1.pdb
 OpenBabel08242612033D

 33 35  0  0  1  0  0  0  0  0999 V2000
    5.6870   -7.2780   30.4930 C   0  0  1  0  0  0  0  0  0  0  0  0
    4.6090   -8.0200   30.4260 O   0  0  0  0  0  0  0  0  0  0  0  0
    6.6540   -7.9690   31.6540 C   0  0  2  0  0  0  0  0  0  0  0  0
    6.2690   -9.1550   31.7150 C   0  0  2  0  0  0  0  0  0  0  0  0
    4.6750   -9.0880   31.4920 C   0  0  2  0  0  0  0  0  0  0  0  0
    4.1720  -10.2120   30.9950 N   0  0  0  0  0  0  0  0  0  0  0  0
    4.0400  -10.7180   29.7500 C   0  0  0  0  0  0  0  0  0  0  0  0
    3.4090  -11.9040   29.8190 N   0  0  0  0  0  0  0  0  0  0  0  0
    3.1370  -12.1470   31.0890 C   0  0  0  0  0  0  0  0  0  0  0  0
    3.1800  -12.5090   29.0310 H   0  0  0  0  0  0  0  0  0  0  0  0
    2.4370  -13.3300   31.7790 C   0  0  0  0  0  0  0  0  0  0  0  0
    3.6050  -11.0850   31.8250 C   0  0  0  0  0  0  0  0  0  0  0  0
    2.2890  -13.3240   33.1900 N   0  0  0  0  0  0  0  0  0  0  0  0
    2.0040  -14.2660   31.1900 O   0  0  0  0  0  0  0  0  0  0  0  0
    2.7860  -12.2110   33.9400 C   0  0  1  0  0  0  0  0  0  0  0  0
    1.8330  -14.1050   33.6630 H   0  0  0  0  0  0  0  0  0  0  0  0
    3.4320  -11.0930   33.2890 N   0  0  0  0  0  0  0  0  0  0  0  0
    2.6070  -12.2100   35.3620 N   0  0  0  0  0  0  0  0  0  0  0  0
    3.7690  -10.3060   33.8450 H   0  0  0  0  0  0  0  0  0  0  0  0
    6.4650   -9.7690   33.0530 O   0  0  0  0  0  0  0  0  0  0  0  0
    6.5720  -10.7130   33.0220 H   0  0  0  0  0  0  0  0  0  0  0  0
    6.3860   -7.2110   29.1730 C   0  0  0  0  0  0  0  0  0  0  0  0
    5.5100   -7.6750   28.1860 O   0  0  0  0  0  0  0  0  0  0  0  0
    5.8230   -7.4400   26.6090 P   0  0  1  0  0  0  0  0  0  0  0  0
    6.7950   -6.3030   26.4390 O   0  0  0  0  0  0  0  0  0  0  0  0
    6.2450   -8.7700   26.0390 O   0  0  0  0  0  0  0  0  0  0  0  0
    4.3810   -7.0200   25.9690 O   0  0  0  0  0  0  0  0  0  0  0  0
    4.0900   -6.5840   24.4260 P   0  0  0  0  0  0  0  0  0  0  0  0
    4.2590   -5.0740   24.3780 O   0  0  0  0  0  0  0  0  0  0  0  0
    2.6510   -7.0110   24.1880 O   0  0  0  0  0  0  0  0  0  0  0  0
    4.9780   -7.3600   23.4850 O   0  0  0  0  0  0  0  0  0  0  0  0
    6.3250   -7.1990   32.8740 O   0  0  0  0  0  0  0  0  0  0  0  0
    6.9050   -7.3980   33.6000 H   0  0  0  0  0  0  0  0  0  0  0  0
  1 22  1  6  0  0  0
  1  2  1  0  0  0  0
  1  3  1  0  0  0  0
  2  5  1  0  0  0  0
  3  4  1  0  0  0  0
  3 32  1  1  0  0  0
  4  5  1  0  0  0  0
  4 20  1  1  0  0  0
  5  6  1  6  0  0  0
  6  7  1  0  0  0  0
  6 12  1  0  0  0  0
  7  8  1  0  0  0  0
  8 10  1  0  0  0  0
  8  9  1  0  0  0  0
  9 11  1  0  0  0  0
  9 12  2  0  0  0  0
 11 14  2  0  0  0  0
 11 13  1  0  0  0  0
 12 17  1  0  0  0  0
 13 16  1  0  0  0  0
 13 15  1  0  0  0  0
 15 17  1  0  0  0  0
 15 18  1  6  0  0  0
 17 19  1  0  0  0  0
 20 21  1  0  0  0  0
 22 23  1  0  0  0  0
 23 24  1  0  0  0  0
 24 27  1  0  0  0  0
 24 26  2  6  0  0  0
 24 25  1  0  0  0  0
 27 28  1  0  0  0  0
 28 31  2  0  0  0  0
 28 30  1  0  0  0  0
 28 29  1  0  0  0  0
 32 33  1  0  0  0  0
M  END
>  <MODEL>
1

>  <REMARK>
 VINA RESULT:    -8.781      0.000      0.000
 INTER + INTRA:         -13.411
 INTER:                 -12.374
 INTRA:                  -1.036
 UNBOUND:                -1.036
  8 active torsions:
  status: ('A' for Active; 'I' for Inactive)
    1  A    between atoms: P_1  and  O_5 
    2  A    between atoms: O_5  and  P_6 
    3  A    between atoms: P_6  and  O_9 
    4  A    between atoms: O_9  and  C_10 
    5  A    between atoms: C_10  and  C_11 
    6  A    between atoms: C_13  and  O_14 
    7  A    between atoms: C_16  and  O_17 
    8  A    between atoms: C_19  and  N_20 

>  <COMPND>
    /home/daniil/Downloads/ml_docking_review/databases/Vina/outputs/6XAF_GDP/6XAF_GDP.pdbqt 

>  <AUTHOR>
    GENERATED BY OPEN BABEL 3.2.1

>  <MASTER>
        0    0    0    0    0    0    0    0   33    0   33    0

$$$$
