../../databases/Vina/outputs/8B8H_OJQ/8B8H_OJQ1.pdb
 OpenBabel08242616453D

 27 28  0  0  1  0  0  0  0  0999 V2000
   27.5920   -5.2340    2.0140 C   0  0  0  0  0  0  0  0  0  0  0  0
   26.9900   -4.2240    2.7440 C   0  0  0  0  0  0  0  0  0  0  0  0
   25.8180   -4.5080    3.4350 C   0  0  0  0  0  0  0  0  0  0  0  0
   25.2840   -5.7890    3.3680 C   0  0  0  0  0  0  0  0  0  0  0  0
   27.0240   -6.4930    1.9770 C   0  0  0  0  0  0  0  0  0  0  0  0
   27.6760   -7.5930    1.1810 C   0  0  0  0  0  0  0  0  0  0  0  0
   25.8850   -6.7470    2.6520 N   0  0  0  0  0  0  0  0  0  0  0  0
   25.4760   -7.6810    2.6160 H   0  0  0  0  0  0  0  0  0  0  0  0
   27.6350   -2.8570    2.7660 C   0  0  0  0  0  0  0  0  0  0  0  0
   27.3740   -2.1910    1.2850 N   0  0  0  0  0  0  0  0  0  0  0  0
   26.8170   -2.6300    0.5510 H   0  0  0  0  0  0  0  0  0  0  0  0
   28.0230   -0.9200    1.1480 C   0  0  0  0  0  0  0  0  0  0  0  0
   27.4870    0.2910    0.4190 C   0  0  2  0  0  0  0  0  0  0  0  0
   28.3680    1.3070    0.4180 N   0  0  0  0  0  0  0  0  0  0  0  0
   29.4350    0.8000    1.0390 O   0  0  0  0  0  0  0  0  0  0  0  0
   28.2480    2.2440    0.0330 H   0  0  0  0  0  0  0  0  0  0  0  0
   29.2970   -0.5110    1.4500 C   0  0  0  0  0  0  0  0  0  0  0  0
   26.1160    0.3630   -0.1510 O   0  0  0  0  0  0  0  0  0  0  0  0
   25.9360    0.3500   -1.0830 H   0  0  0  0  0  0  0  0  0  0  0  0
   25.0900   -3.4650    4.2560 C   0  0  0  0  0  0  0  0  0  0  0  0
   23.9120   -3.0390    3.5770 O   0  0  0  0  0  0  0  0  0  0  0  0
   23.8050   -1.5200    3.0420 P   0  0  0  0  0  0  0  0  0  0  0  0
   24.5370   -0.6160    4.0050 O   0  0  0  0  0  0  0  0  0  0  0  0
   24.4290   -1.4380    1.6720 O   0  0  0  0  0  0  0  0  0  0  0  0
   22.3470   -1.1360    2.9850 O   0  0  0  0  0  0  0  0  0  0  0  0
   28.7140   -4.9910    1.3430 O   0  0  0  0  0  0  0  0  0  0  0  0
   29.2460   -5.7130    1.0320 H   0  0  0  0  0  0  0  0  0  0  0  0
  1 26  1  0  0  0  0
  1  5  2  0  0  0  0
  1  2  1  0  0  0  0
  2  9  1  0  0  0  0
  2  3  2  0  0  0  0
  3  4  1  0  0  0  0
  3 20  1  0  0  0  0
  4  7  1  0  0  0  0
  5  6  1  0  0  0  0
  5  7  1  0  0  0  0
  7  8  1  0  0  0  0
  9 10  1  0  0  0  0
 10 11  1  0  0  0  0
 10 12  1  0  0  0  0
 12 13  1  0  0  0  0
 12 17  2  0  0  0  0
 13 18  1  1  0  0  0
 13 14  1  0  0  0  0
 14 16  1  0  0  0  0
 14 15  1  0  0  0  0
 15 17  1  0  0  0  0
 18 19  1  0  0  0  0
 20 21  1  0  0  0  0
 21 22  1  0  0  0  0
 22 24  2  0  0  0  0
 22 25  1  0  0  0  0
 22 23  1  0  0  0  0
 26 27  1  0  0  0  0
M  END
>  <MODEL>
1

>  <REMARK>
 VINA RESULT:    -8.109      0.000      0.000
 INTER + INTRA:         -12.929
 INTER:                 -11.428
 INTRA:                  -1.501
 UNBOUND:                -1.501
  8 active torsions:
  status: ('A' for Active; 'I' for Inactive)
    1  A    between atoms: C_1  and  O_21 
    2  A    between atoms: C_2  and  C_17 
    3  A    between atoms: C_3  and  C_18 
    4  A    between atoms: N_6  and  C_8 
    5  A    between atoms: N_6  and  C_17 
    6  A    between atoms: C_9  and  O_10 
    7  A    between atoms: C_18  and  O_26 
    8  A    between atoms: O_26  and  P_27 

>  <COMPND>
    /home/daniil/Downloads/ml_docking_review/databases/Vina/outputs/8B8H_OJQ/8B8H_OJQ.pdbqt 

>  <AUTHOR>
    GENERATED BY OPEN BABEL 3.2.1

>  <MASTER>
        0    0    0    0    0    0    0    0   27    0   27    0

$$$$
