../../databases/Vina/outputs/6XCT_478/6XCT_4781.pdb
 OpenBabel08242612043D

 39 41  0  0  1  0  0  0  0  0999 V2000
   11.0900   16.2920  -10.4420 C   0  0  2  0  0  0  0  0  0  0  0  0
   12.3740   16.9700   -9.9400 C   0  0  1  0  0  0  0  0  0  0  0  0
   13.2430   17.2500  -11.0770 N   0  0  0  0  0  0  0  0  0  0  0  0
   14.4800   16.7690  -11.1510 C   0  0  0  0  0  0  0  0  0  0  0  0
   15.0510   16.1000  -10.2990 O   0  0  0  0  0  0  0  0  0  0  0  0
   12.8910   17.8320  -11.8370 H   0  0  0  0  0  0  0  0  0  0  0  0
   15.0450   17.1620  -12.3320 O   0  0  0  0  0  0  0  0  0  0  0  0
   15.1390   18.5600  -12.4670 C   0  0  1  0  0  0  0  0  0  0  0  0
   16.2960   19.1490  -11.6310 C   0  0  0  0  0  0  0  0  0  0  0  0
   17.4760   18.6110  -12.4130 C   0  0  0  0  0  0  0  0  0  0  0  0
   17.0840   18.6570  -13.8010 O   0  0  0  0  0  0  0  0  0  0  0  0
   15.6620   18.9030  -13.8780 C   0  0  0  0  0  0  0  0  0  0  0  0
   12.1280   18.2580   -9.1410 C   0  0  0  0  0  0  0  0  0  0  0  0
   13.0600   18.3660   -7.9490 C   0  0  0  0  0  0  0  0  0  0  0  0
   13.8380   17.2890   -7.5520 C   0  0  0  0  0  0  0  0  0  0  0  0
   14.6770   17.3880   -6.4510 C   0  0  0  0  0  0  0  0  0  0  0  0
   14.7470   18.5610   -5.7380 C   0  0  0  0  0  0  0  0  0  0  0  0
   13.9880   19.6420   -6.1220 C   0  0  0  0  0  0  0  0  0  0  0  0
   13.1470   19.5420   -7.2200 C   0  0  0  0  0  0  0  0  0  0  0  0
    9.9420   16.7850   -9.7510 O   0  0  0  0  0  0  0  0  0  0  0  0
   10.0970   16.8300   -8.8150 H   0  0  0  0  0  0  0  0  0  0  0  0
   11.1360   14.7950  -10.2070 C   0  0  0  0  0  0  0  0  0  0  0  0
   10.8840   13.9460  -11.3770 N   0  0  0  0  0  0  0  0  0  0  0  0
    9.9600   14.5180  -12.3670 C   0  0  0  0  0  0  0  0  0  0  0  0
   10.5770   14.8450  -13.7110 C   0  0  0  0  0  0  0  0  0  0  0  0
   10.0430   14.0420  -14.8540 C   0  0  0  0  0  0  0  0  0  0  0  0
   12.0990   14.6370  -13.5660 C   0  0  0  0  0  0  0  0  0  0  0  0
   10.8430   12.3300  -11.1640 S   0  0  0  0  0  0  0  0  0  0  0  0
   12.1660   11.8970  -10.8470 O   0  0  0  0  0  0  0  0  0  0  0  0
   10.2000   11.8030  -12.3260 O   0  0  0  0  0  0  0  0  0  0  0  0
    9.8020   12.0160   -9.7750 C   0  0  0  0  0  0  0  0  0  0  0  0
    8.4220   11.9470   -9.9370 C   0  0  0  0  0  0  0  0  0  0  0  0
    7.6190   11.6950   -8.8380 C   0  0  0  0  0  0  0  0  0  0  0  0
    8.1780   11.4970   -7.5670 C   0  0  0  0  0  0  0  0  0  0  0  0
    9.5700   11.5580   -7.4270 C   0  0  0  0  0  0  0  0  0  0  0  0
   10.3740   11.8220   -8.5200 C   0  0  0  0  0  0  0  0  0  0  0  0
    7.3760   11.2440   -6.4740 N   0  0  0  0  0  0  0  0  0  0  0  0
    6.9930   10.3110   -6.3180 H   0  0  0  0  0  0  0  0  0  0  0  0
    7.1530   11.9830   -5.8070 H   0  0  0  0  0  0  0  0  0  0  0  0
  1 22  1  1  0  0  0
  1  2  1  0  0  0  0
  1 20  1  0  0  0  0
  2  3  1  0  0  0  0
  2 13  1  6  0  0  0
  3  6  1  0  0  0  0
  3  4  1  0  0  0  0
  4  7  1  0  0  0  0
  4  5  2  0  0  0  0
  8  7  1  6  0  0  0
  8 12  1  0  0  0  0
  8  9  1  0  0  0  0
  9 10  1  0  0  0  0
 10 11  1  0  0  0  0
 11 12  1  0  0  0  0
 13 14  1  0  0  0  0
 14 15  2  0  0  0  0
 14 19  1  0  0  0  0
 15 16  1  0  0  0  0
 16 17  2  0  0  0  0
 17 18  1  0  0  0  0
 18 19  2  0  0  0  0
 20 21  1  0  0  0  0
 22 23  1  0  0  0  0
 23 24  1  0  0  0  0
 23 28  1  0  0  0  0
 24 25  1  0  0  0  0
 25 26  1  0  0  0  0
 25 27  1  0  0  0  0
 28 30  2  0  0  0  0
 28 29  2  0  0  0  0
 28 31  1  0  0  0  0
 31 32  2  0  0  0  0
 31 36  1  0  0  0  0
 32 33  1  0  0  0  0
 33 34  2  0  0  0  0
 34 35  1  0  0  0  0
 34 37  1  0  0  0  0
 35 36  2  0  0  0  0
 37 38  1  0  0  0  0
 37 39  1  0  0  0  0
M  END
>  <MODEL>
1

>  <REMARK>
 VINA RESULT:    -9.074      0.000      0.000
 INTER + INTRA:         -17.611
 INTER:                 -15.970
 INTRA:                  -1.641
 UNBOUND:                -1.641
  14 active torsions:
  status: ('A' for Active; 'I' for Inactive)
       I    between atoms: C_3  and  N_26 
    1  A    between atoms: C_3  and  O_32 
    2  A    between atoms: C_4  and  O_32 
    3  A    between atoms: C_5  and  N_26 
    4  A    between atoms: C_5  and  C_6 
    5  A    between atoms: C_5  and  C_7 
    6  A    between atoms: C_6  and  O_34 
    7  A    between atoms: C_6  and  C_14 
    8  A    between atoms: C_7  and  C_8 
    9  A    between atoms: C_14  and  N_28 
   10  A    between atoms: C_15  and  N_28 
   11  A    between atoms: C_15  and  C_16 
   12  A    between atoms: C_17  and  S_39 
   13  A    between atoms: C_20  and  N_29 
   14  A    between atoms: N_28  and  S_39 

>  <COMPND>
    /home/daniil/Downloads/ml_docking_review/databases/Vina/outputs/6XCT_478/6XCT_478.pdbqt 

>  <AUTHOR>
    GENERATED BY OPEN BABEL 3.2.1

>  <MASTER>
        0    0    0    0    0    0    0    0   39    0   39    0

$$$$
