../../databases/Vina/outputs/7P4V_DAT/7P4V_DAT1.pdb
 OpenBabel08242616453D

 32 34  0  0  1  0  0  0  0  0999 V2000
   31.6470  -10.1230    7.9550 C   0  0  1  0  0  0  0  0  0  0  0  0
   30.4500   -9.8300    8.7130 O   0  0  0  0  0  0  0  0  0  0  0  0
   31.1980  -10.1460    6.4900 C   0  0  2  0  0  0  0  0  0  0  0  0
   29.7610  -10.6320    6.5540 C   0  0  0  0  0  0  0  0  0  0  0  0
   29.2870  -10.1500    7.9250 C   0  0  2  0  0  0  0  0  0  0  0  0
   28.4940   -8.9210    7.7220 N   0  0  0  0  0  0  0  0  0  0  0  0
   28.8890   -7.6310    7.9110 C   0  0  0  0  0  0  0  0  0  0  0  0
   27.8290   -6.7790    7.7640 N   0  0  0  0  0  0  0  0  0  0  0  0
   26.7260   -7.5210    7.5190 C   0  0  0  0  0  0  0  0  0  0  0  0
   27.8660   -5.7620    7.8280 H   0  0  0  0  0  0  0  0  0  0  0  0
   25.3050   -7.2880    7.1790 C   0  0  1  0  0  0  0  0  0  0  0  0
   27.1900   -8.9280    7.4630 C   0  0  0  0  0  0  0  0  0  0  0  0
   24.7330   -6.0580    7.1550 N   0  0  0  0  0  0  0  0  0  0  0  0
   24.5650   -8.3770    6.8640 N   0  0  0  0  0  0  0  0  0  0  0  0
   25.2900   -5.2370    7.3920 H   0  0  0  0  0  0  0  0  0  0  0  0
   23.7530   -5.8970    6.9210 H   0  0  0  0  0  0  0  0  0  0  0  0
   25.0480   -9.6290    6.9080 C   0  0  0  0  0  0  0  0  0  0  0  0
   23.5950   -8.2400    6.5810 H   0  0  0  0  0  0  0  0  0  0  0  0
   26.3240   -9.9120    7.1950 N   0  0  0  0  0  0  0  0  0  0  0  0
   26.6380  -10.8820    7.2090 H   0  0  0  0  0  0  0  0  0  0  0  0
   32.7210   -9.0740    8.2140 C   0  0  0  0  0  0  0  0  0  0  0  0
   33.9500   -9.7650    8.3980 O   0  0  0  0  0  0  0  0  0  0  0  0
   35.1930   -9.1760    9.2670 P   0  0  1  0  0  0  0  0  0  0  0  0
   36.0260   -8.3230    8.3470 O   0  0  0  0  0  0  0  0  0  0  0  0
   34.5890   -8.3700   10.3870 O   0  0  0  0  0  0  0  0  0  0  0  0
   36.1430  -10.3910    9.7650 O   0  0  0  0  0  0  0  0  0  0  0  0
   36.3640  -10.9660   11.2620 P   0  0  0  0  0  0  0  0  0  0  0  0
   36.5590   -9.8300   12.2420 O   0  0  0  0  0  0  0  0  0  0  0  0
   35.1090  -11.7350   11.5910 O   0  0  0  0  0  0  0  0  0  0  0  0
   37.5880  -11.8410   11.2970 O   0  0  0  0  0  0  0  0  0  0  0  0
   31.9700  -11.0390    5.6880 O   0  0  0  0  0  0  0  0  0  0  0  0
   32.4170  -11.7020    6.2010 H   0  0  0  0  0  0  0  0  0  0  0  0
  1  3  1  0  0  0  0
  1 21  1  6  0  0  0
  1  2  1  0  0  0  0
  2  5  1  0  0  0  0
  3 31  1  6  0  0  0
  3  4  1  0  0  0  0
  5  4  1  6  0  0  0
  5  6  1  0  0  0  0
  6 12  1  0  0  0  0
  6  7  1  0  0  0  0
  7  8  1  0  0  0  0
  8  9  1  0  0  0  0
  8 10  1  0  0  0  0
  9 11  1  0  0  0  0
  9 12  2  0  0  0  0
 11 14  1  0  0  0  0
 11 13  1  6  0  0  0
 12 19  1  0  0  0  0
 13 16  1  0  0  0  0
 13 15  1  0  0  0  0
 14 18  1  0  0  0  0
 14 17  1  0  0  0  0
 17 19  1  0  0  0  0
 19 20  1  0  0  0  0
 21 22  1  0  0  0  0
 22 23  1  0  0  0  0
 23 24  2  6  0  0  0
 23 26  1  0  0  0  0
 23 25  1  0  0  0  0
 26 27  1  0  0  0  0
 27 30  2  0  0  0  0
 27 29  1  0  0  0  0
 27 28  1  0  0  0  0
 31 32  1  0  0  0  0
M  END
>  <MODEL>
1

>  <REMARK>
 VINA RESULT:    -7.446      0.000      0.000
 INTER + INTRA:         -10.853
 INTER:                 -10.276
 INTRA:                  -0.577
 UNBOUND:                -0.577
  7 active torsions:
  status: ('A' for Active; 'I' for Inactive)
    1  A    between atoms: P_1  and  O_8 
    2  A    between atoms: P_5  and  O_9 
    3  A    between atoms: P_5  and  O_8 
    4  A    between atoms: O_9  and  C_10 
    5  A    between atoms: C_10  and  C_11 
    6  A    between atoms: C_13  and  O_14 
    7  A    between atoms: C_17  and  N_18 

>  <COMPND>
    /home/daniil/Downloads/ml_docking_review/databases/Vina/outputs/7P4V_DAT/7P4V_DAT.pdbqt 

>  <AUTHOR>
    GENERATED BY OPEN BABEL 3.2.1

>  <MASTER>
        0    0    0    0    0    0    0    0   32    0   32    0

$$$$
