../../databases/Vina/outputs/7CIJ_G0C/7CIJ_G0C1.pdb
 OpenBabel08242616453D

 24 24  0  0  0  0  0  0  0  0999 V2000
   25.6990  -12.2680   57.8430 C   0  0  0  0  0  0  0  0  0  0  0  0
   24.9270  -11.4340   57.0010 C   0  0  0  0  0  0  0  0  0  0  0  0
   24.0700  -11.9950   56.0500 C   0  0  0  0  0  0  0  0  0  0  0  0
   23.9500  -13.3270   55.9260 N   0  0  0  0  0  0  0  0  0  0  0  0
   23.3130  -13.7090   55.2260 H   0  0  0  0  0  0  0  0  0  0  0  0
   25.5500  -13.6730   57.6530 C   0  0  0  0  0  0  0  0  0  0  0  0
   24.6630  -14.1820   56.7150 C   0  0  0  0  0  0  0  0  0  0  0  0
   24.4610  -15.6540   56.4550 C   0  0  0  0  0  0  0  0  0  0  0  0
   26.6040  -11.7440   58.7850 C   0  0  0  0  0  0  0  0  0  0  0  0
   26.6200  -12.2220   60.0090 N   0  0  0  0  0  0  0  0  0  0  0  0
   25.7260  -12.3420   60.4850 H   0  0  0  0  0  0  0  0  0  0  0  0
   27.8400  -12.5960   60.7340 C   0  0  0  0  0  0  0  0  0  0  0  0
   28.4630  -11.6930   61.7870 C   0  0  0  0  0  0  0  0  0  0  0  0
   29.5800  -10.7950   61.3310 C   0  0  0  0  0  0  0  0  0  0  0  0
   30.3280  -11.7260   59.9240 S   0  0  0  0  0  0  0  0  0  0  0  0
   31.8650  -12.3370   60.5960 C   0  0  0  0  0  0  0  0  0  0  0  0
   24.9900   -9.9030   57.0230 C   0  0  0  0  0  0  0  0  0  0  0  0
   26.1900   -9.5370   56.3770 O   0  0  0  0  0  0  0  0  0  0  0  0
   26.9930   -8.2360   56.9390 P   0  0  0  0  0  0  0  0  0  0  0  0
   26.8600   -8.3410   58.4000 O   0  0  0  0  0  0  0  0  0  0  0  0
   26.2570   -7.0440   56.4140 O   0  0  0  0  0  0  0  0  0  0  0  0
   28.3030   -8.5040   56.3950 O   0  0  0  0  0  0  0  0  0  0  0  0
   26.2340  -14.5690   58.4090 O   0  0  0  0  0  0  0  0  0  0  0  0
   25.8810  -15.4300   58.6020 H   0  0  0  0  0  0  0  0  0  0  0  0
  1  2  2  0  0  0  0
  1  6  1  0  0  0  0
  1  9  1  0  0  0  0
  2  3  1  0  0  0  0
  2 17  1  0  0  0  0
  3  4  1  0  0  0  0
  4  5  1  0  0  0  0
  4  7  1  0  0  0  0
  6  7  2  0  0  0  0
  6 23  1  0  0  0  0
  7  8  1  0  0  0  0
  9 10  1  0  0  0  0
 10 11  1  0  0  0  0
 10 12  1  0  0  0  0
 12 13  1  0  0  0  0
 13 14  1  0  0  0  0
 14 15  1  0  0  0  0
 15 16  1  0  0  0  0
 17 18  1  0  0  0  0
 18 19  1  0  0  0  0
 19 22  2  0  0  0  0
 19 21  1  0  0  0  0
 19 20  1  0  0  0  0
 23 24  1  0  0  0  0
M  END
>  <MODEL>
1

>  <REMARK>
 VINA RESULT:    -7.955      0.000      0.000
 INTER + INTRA:         -13.255
 INTER:                 -12.373
 INTRA:                  -0.882
 UNBOUND:                -0.882
  10 active torsions:
  status: ('A' for Active; 'I' for Inactive)
    1  A    between atoms: C_1  and  C_17 
    2  A    between atoms: C_2  and  C_12 
    3  A    between atoms: C_6  and  O_15 
    4  A    between atoms: P_8  and  O_11 
    5  A    between atoms: O_11  and  C_12 
    6  A    between atoms: C_17  and  N_18 
    7  A    between atoms: N_18  and  C_20 
    8  A    between atoms: C_20  and  C_21 
    9  A    between atoms: C_21  and  C_22 
   10  A    between atoms: C_22  and  S_23 

>  <COMPND>
    /home/daniil/Downloads/ml_docking_review/databases/Vina/outputs/7CIJ_G0C/7CIJ_G0C.pdbqt 

>  <AUTHOR>
    GENERATED BY OPEN BABEL 3.2.1

>  <MASTER>
        0    0    0    0    0    0    0    0   24    0   24    0

$$$$
