../../databases/Vina/outputs/7P2W_4QR/7P2W_4QR1.pdb
 OpenBabel08242616453D

 37 40  0  0  1  0  0  0  0  0999 V2000
  -27.9310    7.5690   -1.3320 N   0  0  0  0  0  0  0  0  0  0  0  0
  -27.5190    7.9200   -2.1960 H   0  0  0  0  0  0  0  0  0  0  0  0
  -30.1760    8.5390   -1.5940 C   0  0  0  0  0  0  0  0  0  0  0  0
  -29.2130    7.8160   -0.9090 C   0  0  0  0  0  0  0  0  0  0  0  0
  -29.5660    7.2130    0.3110 C   0  0  0  0  0  0  0  0  0  0  0  0
  -27.3250    6.8200   -0.4640 C   0  0  2  0  0  0  0  0  0  0  0  0
  -30.8320    7.3670    0.8520 C   0  0  0  0  0  0  0  0  0  0  0  0
  -31.7790    8.1230    0.1590 C   0  0  0  0  0  0  0  0  0  0  0  0
  -31.4480    8.6860   -1.0630 C   0  0  0  0  0  0  0  0  0  0  0  0
  -28.2180    6.3230    0.9530 S   0  0  0  0  0  0  0  0  0  0  0  0
  -26.0100    6.4710   -0.6540 N   0  0  0  0  0  0  0  0  0  0  0  0
  -25.4030    5.4540   -0.0210 C   0  0  0  0  0  0  0  0  0  0  0  0
  -25.7990    5.0210    1.0600 O   0  0  0  0  0  0  0  0  0  0  0  0
  -25.4610    7.0180   -1.3160 H   0  0  0  0  0  0  0  0  0  0  0  0
  -24.2220    4.8720   -0.6770 C   0  0  0  0  0  0  0  0  0  0  0  0
  -23.2750    4.2550    0.1090 N   0  0  0  0  0  0  0  0  0  0  0  0
  -22.2950    3.7250   -0.6710 C   0  0  0  0  0  0  0  0  0  0  0  0
  -23.3050    4.2020    1.1270 H   0  0  0  0  0  0  0  0  0  0  0  0
  -22.5930    3.9990   -1.9540 C   0  0  0  0  0  0  0  0  0  0  0  0
  -21.1360    2.9740   -0.1210 C   0  0  0  0  0  0  0  0  0  0  0  0
  -23.7910    4.7090   -1.9890 C   0  0  0  0  0  0  0  0  0  0  0  0
  -21.6760    3.4960   -3.3000 Cl  0  0  0  0  0  0  0  0  0  0  0  0
  -24.5400    5.2480   -3.4280 Cl  0  0  0  0  0  0  0  0  0  0  0  0
  -29.8800    9.1940   -2.7470 O   0  0  0  0  0  0  0  0  0  0  0  0
  -29.2130    8.5380   -3.8030 C   0  0  0  0  0  0  0  0  0  0  0  0
  -30.2000    7.7130   -4.5610 C   0  0  0  0  0  0  0  0  0  0  0  0
  -30.9980    8.3080   -5.5310 C   0  0  0  0  0  0  0  0  0  0  0  0
  -31.9120    7.5560   -6.2660 C   0  0  0  0  0  0  0  0  0  0  0  0
  -31.9680    6.1910   -6.0500 C   0  0  0  0  0  0  0  0  0  0  0  0
  -31.1510    5.5840   -5.1130 C   0  0  0  0  0  0  0  0  0  0  0  0
  -30.2470    6.3390   -4.3790 C   0  0  0  0  0  0  0  0  0  0  0  0
  -32.7560    8.2110   -7.3420 C   0  0  0  0  0  0  0  0  0  0  0  0
  -34.0110    8.0800   -7.2790 O   0  0  0  0  0  0  0  0  0  0  0  0
  -32.1750    8.9250   -8.1780 O   0  0  0  0  0  0  0  0  0  0  0  0
  -33.1720    8.2600    0.7220 C   0  0  0  0  0  0  0  0  0  0  0  0
  -33.4050    7.7450    1.8630 O   0  0  0  0  0  0  0  0  0  0  0  0
  -34.0060    8.9350    0.0420 O   0  0  0  0  0  0  0  0  0  0  0  0
  1  2  1  0  0  0  0
  1  4  1  0  0  0  0
  1  6  1  0  0  0  0
  3 24  1  0  0  0  0
  3  9  2  0  0  0  0
  3  4  1  0  0  0  0
  4  5  2  0  0  0  0
  5  7  1  0  0  0  0
  5 10  1  0  0  0  0
  6 11  1  1  0  0  0
  6 10  1  0  0  0  0
  7  8  2  0  0  0  0
  8  9  1  0  0  0  0
  8 35  1  0  0  0  0
 11 14  1  0  0  0  0
 11 12  1  0  0  0  0
 12 15  1  0  0  0  0
 12 13  2  0  0  0  0
 15 21  2  0  0  0  0
 15 16  1  0  0  0  0
 16 17  1  0  0  0  0
 16 18  1  0  0  0  0
 17 19  2  0  0  0  0
 17 20  1  0  0  0  0
 19 22  1  0  0  0  0
 19 21  1  0  0  0  0
 21 23  1  0  0  0  0
 24 25  1  0  0  0  0
 25 26  1  0  0  0  0
 26 27  2  0  0  0  0
 26 31  1  0  0  0  0
 27 28  1  0  0  0  0
 28 32  1  0  0  0  0
 28 29  2  0  0  0  0
 29 30  1  0  0  0  0
 30 31  2  0  0  0  0
 32 34  2  0  0  0  0
 32 33  1  0  0  0  0
 35 37  2  0  0  0  0
 35 36  1  0  0  0  0
M  END
>  <MODEL>
1

>  <REMARK>
 VINA RESULT:   -10.177      0.000      0.000
 INTER + INTRA:         -14.289
 INTER:                 -14.341
 INTRA:                   0.052
 UNBOUND:                 0.052
  7 active torsions:
  status: ('A' for Active; 'I' for Inactive)
    1  A    between atoms: C_5  and  O_23 
    2  A    between atoms: C_8  and  N_31 
    3  A    between atoms: C_9  and  C_18 
    4  A    between atoms: C_10  and  C_24 
       I    between atoms: C_13  and  N_31 
    5  A    between atoms: C_13  and  C_33 
    6  A    between atoms: O_23  and  C_24 
    7  A    between atoms: C_27  and  C_28 

>  <COMPND>
    /home/daniil/Downloads/ml_docking_review/databases/Vina/outputs/7P2W_4QR/7P2W_4QR.pdbqt 

>  <AUTHOR>
    GENERATED BY OPEN BABEL 3.2.1

>  <MASTER>
        0    0    0    0    0    0    0    0   37    0   37    0

$$$$
