../../databases/Vina/outputs/7QE4_NGA/7QE4_NGA1.pdb
 OpenBabel08242616453D

 20 20  0  0  1  0  0  0  0  0999 V2000
   48.5970   19.6400   73.5900 C   0  0  1  0  0  0  0  0  0  0  0  0
   49.7930   20.2680   74.3100 C   0  0  1  0  0  0  0  0  0  0  0  0
   50.2400   19.3880   75.4740 C   0  0  2  0  0  0  0  0  0  0  0  0
   49.0560   19.0840   76.3740 C   0  0  2  0  0  0  0  0  0  0  0  0
   47.9740   18.4640   75.5080 C   0  0  2  0  0  0  0  0  0  0  0  0
   47.5510   19.4100   74.5290 O   0  0  0  0  0  0  0  0  0  0  0  0
   50.8970   20.4470   73.3870 N   0  0  0  0  0  0  0  0  0  0  0  0
   51.7550   21.4680   73.4700 C   0  0  0  0  0  0  0  0  0  0  0  0
   52.8380   21.4460   72.4300 C   0  0  0  0  0  0  0  0  0  0  0  0
   51.6850   22.3590   74.3130 O   0  0  0  0  0  0  0  0  0  0  0  0
   51.0250   19.7630   72.6420 H   0  0  0  0  0  0  0  0  0  0  0  0
   48.0950   20.4650   72.5330 O   0  0  0  0  0  0  0  0  0  0  0  0
   48.7180   21.1620   72.3660 H   0  0  0  0  0  0  0  0  0  0  0  0
   51.2470   20.0260   76.2590 O   0  0  0  0  0  0  0  0  0  0  0  0
   51.3650   19.5250   77.0560 H   0  0  0  0  0  0  0  0  0  0  0  0
   48.6410   20.3130   77.0030 O   0  0  0  0  0  0  0  0  0  0  0  0
   47.6970   20.4030   77.0570 H   0  0  0  0  0  0  0  0  0  0  0  0
   46.7850   18.0220   76.3420 C   0  0  0  0  0  0  0  0  0  0  0  0
   45.8520   19.0970   76.3080 O   0  0  0  0  0  0  0  0  0  0  0  0
   45.0090   18.7120   76.0970 H   0  0  0  0  0  0  0  0  0  0  0  0
  1 12  1  6  0  0  0
  1  2  1  0  0  0  0
  1  6  1  0  0  0  0
  2  7  1  6  0  0  0
  2  3  1  0  0  0  0
  3 14  1  1  0  0  0
  3  4  1  0  0  0  0
  4  5  1  0  0  0  0
  4 16  1  6  0  0  0
  5  6  1  0  0  0  0
  5 18  1  1  0  0  0
  7 11  1  0  0  0  0
  7  8  1  0  0  0  0
  8  9  1  0  0  0  0
  8 10  2  0  0  0  0
 12 13  1  0  0  0  0
 14 15  1  0  0  0  0
 16 17  1  0  0  0  0
 18 19  1  0  0  0  0
 19 20  1  0  0  0  0
M  END
>  <MODEL>
1

>  <REMARK>
 VINA RESULT:    -5.041      0.000      0.000
 INTER + INTRA:          -6.683
 INTER:                  -6.219
 INTRA:                  -0.464
 UNBOUND:                -0.464
  6 active torsions:
  status: ('A' for Active; 'I' for Inactive)
    1  A    between atoms: C_1  and  O_11 
    2  A    between atoms: C_2  and  N_9 
    3  A    between atoms: C_3  and  O_13 
    4  A    between atoms: C_4  and  O_15 
    5  A    between atoms: C_5  and  C_6 
    6  A    between atoms: C_6  and  O_18 
       I    between atoms: C_7  and  N_9 

>  <COMPND>
    /home/daniil/Downloads/ml_docking_review/databases/Vina/outputs/7QE4_NGA/7QE4_NGA.pdbqt 

>  <AUTHOR>
    GENERATED BY OPEN BABEL 3.2.1

>  <MASTER>
        0    0    0    0    0    0    0    0   20    0   20    0

$$$$
