../../databases/Vina/outputs/6TW5_9M2/6TW5_9M21.pdb
 OpenBabel08242616453D

 34 37  0  0  1  0  0  0  0  0999 V2000
    2.3490   -8.0740   86.5650 C   0  0  0  0  0  0  0  0  0  0  0  0
    3.8270   -8.8440   88.3560 C   0  0  0  0  0  0  0  0  0  0  0  0
    3.6420   -8.4150   87.0130 C   0  0  0  0  0  0  0  0  0  0  0  0
    0.0780   -7.8060   86.9760 F   0  0  0  0  0  0  0  0  0  0  0  0
    1.2750   -8.1690   87.4570 C   0  0  0  0  0  0  0  0  0  0  0  0
    1.4110   -8.5840   88.7670 C   0  0  0  0  0  0  0  0  0  0  0  0
    2.6520   -8.9400   89.2380 C   0  0  0  0  0  0  0  0  0  0  0  0
    5.1870   -9.1340   88.8120 C   0  0  0  0  0  0  0  0  0  0  0  0
    6.0060   -9.9340   87.9920 C   0  0  0  0  0  0  0  0  0  0  0  0
    7.3450  -10.1570   88.3630 C   0  0  0  0  0  0  0  0  0  0  0  0
    7.9230   -9.5930   89.5660 C   0  0  0  0  0  0  0  0  0  0  0  0
    8.4150  -10.9780   87.7200 C   0  0  0  0  0  0  0  0  0  0  0  0
    7.1000   -8.7640   90.3400 C   0  0  0  0  0  0  0  0  0  0  0  0
    9.2450   -9.9960   89.6220 N   0  0  0  0  0  0  0  0  0  0  0  0
    5.7720   -8.5750   89.9750 C   0  0  0  0  0  0  0  0  0  0  0  0
    9.5040  -10.8150   88.5060 N   0  0  0  0  0  0  0  0  0  0  0  0
    9.9160   -9.7440   90.3480 H   0  0  0  0  0  0  0  0  0  0  0  0
   10.4110  -11.2380   88.3120 H   0  0  0  0  0  0  0  0  0  0  0  0
    8.2930  -11.8430   86.4430 C   0  0  0  0  0  0  0  0  0  0  0  0
    8.1930  -11.1130   85.1610 N   0  0  0  0  0  0  0  0  0  0  0  0
    8.9400  -11.7850   84.0590 C   0  0  0  0  0  0  0  0  0  0  0  0
    6.7730  -11.0420   84.7320 C   0  0  0  0  0  0  0  0  0  0  0  0
    2.8940   -9.3700   90.5070 O   0  0  0  0  0  0  0  0  0  0  0  0
    1.7460   -9.2790   91.3800 C   0  0  0  0  0  0  0  0  0  0  0  0
    2.2620   -9.6710   92.7270 C   0  0  0  0  0  0  0  0  0  0  0  0
    2.4840  -11.1620   92.9190 C   0  0  0  0  0  0  0  0  0  0  0  0
    3.8240  -11.8250   92.8690 C   0  0  1  0  0  0  0  0  0  0  0  0
    3.6000  -13.1150   93.1150 N   0  0  0  0  0  0  0  0  0  0  0  0
    5.1810  -11.2300   92.5370 C   0  0  0  0  0  0  0  0  0  0  0  0
    4.5110  -14.2650   93.2530 C   0  0  0  0  0  0  0  0  0  0  0  0
    2.2200  -13.4210   93.3300 N   0  0  0  0  0  0  0  0  0  0  0  0
    1.5370  -12.2840   93.2450 C   0  0  0  0  0  0  0  0  0  0  0  0
    1.8300  -14.3450   93.5140 H   0  0  0  0  0  0  0  0  0  0  0  0
    0.0340  -12.3270   93.4000 C   0  0  0  0  0  0  0  0  0  0  0  0
  1  3  2  0  0  0  0
  1  5  1  0  0  0  0
  2  3  1  0  0  0  0
  2  8  1  0  0  0  0
  2  7  2  0  0  0  0
  4  5  1  0  0  0  0
  5  6  2  0  0  0  0
  6  7  1  0  0  0  0
  7 23  1  0  0  0  0
  8  9  1  0  0  0  0
  8 15  2  0  0  0  0
  9 10  1  0  0  0  0
 10 12  2  0  0  0  0
 10 11  1  0  0  0  0
 11 14  1  0  0  0  0
 11 13  2  0  0  0  0
 12 19  1  0  0  0  0
 12 16  1  0  0  0  0
 13 15  1  0  0  0  0
 14 16  1  0  0  0  0
 14 17  1  0  0  0  0
 16 18  1  0  0  0  0
 19 20  1  0  0  0  0
 20 21  1  0  0  0  0
 20 22  1  0  0  0  0
 23 24  1  0  0  0  0
 24 25  1  0  0  0  0
 25 26  1  0  0  0  0
 26 27  1  0  0  0  0
 26 32  2  0  0  0  0
 27 29  1  6  0  0  0
 27 28  1  0  0  0  0
 28 30  1  0  0  0  0
 28 31  1  0  0  0  0
 31 32  1  0  0  0  0
 31 33  1  0  0  0  0
 32 34  1  0  0  0  0
M  END
>  <MODEL>
1

>  <REMARK>
 VINA RESULT:   -11.433      0.000      0.000
 INTER + INTRA:         -17.515
 INTER:                 -16.111
 INTRA:                  -1.403
 UNBOUND:                -1.403
  7 active torsions:
  status: ('A' for Active; 'I' for Inactive)
    1  A    between atoms: C_4  and  C_6 
    2  A    between atoms: C_15  and  O_23 
    3  A    between atoms: C_18  and  C_19 
    4  A    between atoms: C_19  and  N_20 
    5  A    between atoms: O_23  and  C_24 
    6  A    between atoms: C_24  and  C_25 
    7  A    between atoms: C_25  and  C_26 

>  <COMPND>
    /home/daniil/Downloads/ml_docking_review/databases/Vina/outputs/6TW5_9M2/6TW5_9M2.pdbqt 

>  <AUTHOR>
    GENERATED BY OPEN BABEL 3.2.1

>  <MASTER>
        0    0    0    0    0    0    0    0   34    0   34    0

$$$$
