../../databases/Vina/outputs/7N4N_0BK/7N4N_0BK1.pdb
 OpenBabel08242616453D

 38 40  0  0  1  0  0  0  0  0999 V2000
   20.5300   -9.6940  -16.9490 C   0  0  0  0  0  0  0  0  0  0  0  0
   18.7490   -7.8870  -18.1110 C   0  0  0  0  0  0  0  0  0  0  0  0
   20.0070   -7.4130  -17.7030 C   0  0  0  0  0  0  0  0  0  0  0  0
   20.8630   -8.3470  -17.1410 C   0  0  0  0  0  0  0  0  0  0  0  0
   19.2630  -10.1160  -17.3750 C   0  0  0  0  0  0  0  0  0  0  0  0
   18.3840   -9.2070  -17.9270 C   0  0  0  0  0  0  0  0  0  0  0  0
   17.8410   -7.0600  -18.7060 F   0  0  0  0  0  0  0  0  0  0  0  0
   20.4280   -5.9520  -17.9120 C   0  0  2  0  0  0  0  0  0  0  0  0
   20.3820   -5.6460  -19.4230 C   0  0  0  0  0  0  0  0  0  0  0  0
   21.5450   -6.3270  -20.1870 C   0  0  0  0  0  0  0  0  0  0  0  0
   22.9050   -5.7540  -19.7210 C   0  0  2  0  0  0  0  0  0  0  0  0
   24.0140   -6.7030  -20.1900 C   0  0  0  0  0  0  0  0  0  0  0  0
   22.8740   -5.6780  -18.1990 C   0  0  2  0  0  0  0  0  0  0  0  0
   21.8050   -5.7050  -17.4560 N   0  0  0  0  0  0  0  0  0  0  0  0
   21.9350   -5.5380  -16.4580 H   0  0  0  0  0  0  0  0  0  0  0  0
   19.5530   -4.9950  -17.1040 C   0  0  0  0  0  0  0  0  0  0  0  0
   19.3560   -5.5220  -15.8220 F   0  0  0  0  0  0  0  0  0  0  0  0
   23.1420   -4.0560  -20.4490 S   0  0  0  0  0  0  0  0  0  0  0  0
   24.9040   -3.7310  -20.8210 C   0  0  0  0  0  0  0  0  0  0  0  0
   22.5030   -4.0330  -21.7200 O   0  0  0  0  0  0  0  0  0  0  0  0
   22.8250   -3.0090  -19.5300 O   0  0  0  0  0  0  0  0  0  0  0  0
   24.0700   -5.5150  -17.5720 N   0  0  0  0  0  0  0  0  0  0  0  0
   24.4340   -6.3070  -17.0400 H   0  0  0  0  0  0  0  0  0  0  0  0
   24.5030   -4.5950  -17.6440 H   0  0  0  0  0  0  0  0  0  0  0  0
   21.5260  -10.5180  -16.3530 N   0  0  0  0  0  0  0  0  0  0  0  0
   21.3790  -11.5150  -15.4620 C   0  0  0  0  0  0  0  0  0  0  0  0
   20.2740  -11.8970  -15.0580 O   0  0  0  0  0  0  0  0  0  0  0  0
   22.4850  -10.3260  -16.6420 H   0  0  0  0  0  0  0  0  0  0  0  0
   22.6220  -12.2000  -15.0330 C   0  0  1  0  0  0  0  0  0  0  0  0
   22.8780  -13.5610  -15.3100 C   0  0  0  0  0  0  0  0  0  0  0  0
   24.1230  -14.0810  -14.9030 C   0  0  0  0  0  0  0  0  0  0  0  0
   24.9890  -13.3070  -14.2610 N   0  0  0  0  0  0  0  0  0  0  0  0
   24.7010  -12.0530  -14.0170 C   0  0  0  0  0  0  0  0  0  0  0  0
   25.8840  -13.6910  -13.9560 H   0  0  0  0  0  0  0  0  0  0  0  0
   23.5570  -11.5030  -14.3810 N   0  0  0  0  0  0  0  0  0  0  0  0
   23.3830  -10.5220  -14.1580 H   0  0  0  0  0  0  0  0  0  0  0  0
   24.4680  -15.3650  -15.1570 O   0  0  0  0  0  0  0  0  0  0  0  0
   25.5110  -15.9760  -14.3460 C   0  0  0  0  0  0  0  0  0  0  0  0
  1  5  2  0  0  0  0
  1  4  1  0  0  0  0
  1 25  1  0  0  0  0
  2  7  1  0  0  0  0
  2  6  2  0  0  0  0
  2  3  1  0  0  0  0
  3  8  1  0  0  0  0
  3  4  2  0  0  0  0
  5  6  1  0  0  0  0
  8  9  1  0  0  0  0
  8 14  1  0  0  0  0
  8 16  1  1  0  0  0
  9 10  1  0  0  0  0
 10 11  1  0  0  0  0
 11 18  1  0  0  0  0
 11 12  1  6  0  0  0
 11 13  1  0  0  0  0
 13 22  1  6  0  0  0
 13 14  1  0  0  0  0
 14 15  1  0  0  0  0
 16 17  1  0  0  0  0
 18 20  2  0  0  0  0
 18 19  1  0  0  0  0
 18 21  2  0  0  0  0
 22 24  1  0  0  0  0
 22 23  1  0  0  0  0
 25 28  1  0  0  0  0
 25 26  1  0  0  0  0
 26 27  2  0  0  0  0
 29 26  1  6  0  0  0
 29 30  1  0  0  0  0
 29 35  1  0  0  0  0
 30 31  2  0  0  0  0
 31 37  1  0  0  0  0
 31 32  1  0  0  0  0
 32 33  1  0  0  0  0
 32 34  1  0  0  0  0
 33 35  1  0  0  0  0
 35 36  1  0  0  0  0
 37 38  1  0  0  0  0
M  END
>  <MODEL>
1

>  <REMARK>
 VINA RESULT:    -9.913      0.000      0.000
 INTER + INTRA:         -14.762
 INTER:                 -13.680
 INTRA:                  -1.082
 UNBOUND:                -1.082
  7 active torsions:
  status: ('A' for Active; 'I' for Inactive)
    1  A    between atoms: C_2  and  O_14 
    2  A    between atoms: C_4  and  C_19 
    3  A    between atoms: C_6  and  N_21 
    4  A    between atoms: C_8  and  C_10 
    5  A    between atoms: C_10  and  C_26 
    6  A    between atoms: C_12  and  S_36 
       I    between atoms: C_19  and  N_21 
    7  A    between atoms: C_30  and  N_31 

>  <COMPND>
    /home/daniil/Downloads/ml_docking_review/databases/Vina/outputs/7N4N_0BK/7N4N_0BK.pdbqt 

>  <AUTHOR>
    GENERATED BY OPEN BABEL 3.2.1

>  <MASTER>
        0    0    0    0    0    0    0    0   38    0   38    0

$$$$
