../../databases/Vina/outputs/7T3E_SLB/7T3E_SLB1.pdb
 OpenBabel08242612043D

 27 27  0  0  1  0  0  0  0  0999 V2000
   14.6080  -23.3390  -24.3920 C   0  0  2  0  0  0  0  0  0  0  0  0
   15.8870  -23.8950  -23.8100 C   0  0  0  0  0  0  0  0  0  0  0  0
   16.9210  -22.8270  -23.7110 C   0  0  1  0  0  0  0  0  0  0  0  0
   16.3800  -21.6910  -22.8680 C   0  0  2  0  0  0  0  0  0  0  0  0
   15.1310  -21.1410  -23.5450 C   0  0  1  0  0  0  0  0  0  0  0  0
   14.1490  -22.1930  -23.6490 O   0  0  0  0  0  0  0  0  0  0  0  0
   14.4620  -20.0160  -22.7970 C   0  0  2  0  0  0  0  0  0  0  0  0
   14.2730  -20.3890  -21.4090 O   0  0  0  0  0  0  0  0  0  0  0  0
   13.7170  -19.7520  -20.9760 H   0  0  0  0  0  0  0  0  0  0  0  0
   13.0830  -19.6700  -23.3720 C   0  0  2  0  0  0  0  0  0  0  0  0
   13.1780  -19.5910  -24.7950 O   0  0  0  0  0  0  0  0  0  0  0  0
   13.3410  -20.4590  -25.1440 H   0  0  0  0  0  0  0  0  0  0  0  0
   12.5400  -18.3970  -22.7930 C   0  0  0  0  0  0  0  0  0  0  0  0
   13.5270  -17.5520  -22.2070 O   0  0  0  0  0  0  0  0  0  0  0  0
   13.7280  -17.7560  -21.3000 H   0  0  0  0  0  0  0  0  0  0  0  0
   17.3400  -20.6150  -22.7360 N   0  0  0  0  0  0  0  0  0  0  0  0
   18.2310  -20.5230  -21.6880 C   0  0  0  0  0  0  0  0  0  0  0  0
   19.1530  -19.3200  -21.7330 C   0  0  0  0  0  0  0  0  0  0  0  0
   18.2780  -21.3530  -20.7980 O   0  0  0  0  0  0  0  0  0  0  0  0
   17.3580  -19.8910  -23.4530 H   0  0  0  0  0  0  0  0  0  0  0  0
   13.4380  -24.3130  -24.2890 C   0  0  0  0  0  0  0  0  0  0  0  0
   13.0560  -24.6430  -23.1260 O   0  0  0  0  0  0  0  0  0  0  0  0
   12.9290  -24.7440  -25.3590 O   0  0  0  0  0  0  0  0  0  0  0  0
   14.8000  -22.9260  -25.7120 O   0  0  0  0  0  0  0  0  0  0  0  0
   15.3910  -22.1840  -25.7530 H   0  0  0  0  0  0  0  0  0  0  0  0
   18.1240  -23.3770  -23.1250 O   0  0  0  0  0  0  0  0  0  0  0  0
   18.5660  -23.9220  -23.7650 H   0  0  0  0  0  0  0  0  0  0  0  0
  1 24  1  6  0  0  0
  1 21  1  0  0  0  0
  1  2  1  0  0  0  0
  1  6  1  0  0  0  0
  2  3  1  0  0  0  0
  3 26  1  1  0  0  0
  3  4  1  0  0  0  0
  4  5  1  0  0  0  0
  4 16  1  6  0  0  0
  5  6  1  0  0  0  0
  5  7  1  1  0  0  0
  7 10  1  0  0  0  0
  7  8  1  1  0  0  0
  8  9  1  0  0  0  0
 10 11  1  0  0  0  0
 10 13  1  1  0  0  0
 11 12  1  0  0  0  0
 13 14  1  0  0  0  0
 14 15  1  0  0  0  0
 16 20  1  0  0  0  0
 16 17  1  0  0  0  0
 17 18  1  0  0  0  0
 17 19  2  0  0  0  0
 21 23  2  0  0  0  0
 21 22  1  0  0  0  0
 24 25  1  0  0  0  0
 26 27  1  0  0  0  0
M  END
>  <MODEL>
1

>  <REMARK>
 VINA RESULT:    -8.458      0.000      0.000
 INTER + INTRA:         -13.408
 INTER:                 -12.167
 INTRA:                  -1.241
 UNBOUND:                -1.241
  10 active torsions:
  status: ('A' for Active; 'I' for Inactive)
    1  A    between atoms: C_1  and  C_2 
    2  A    between atoms: C_2  and  O_16 
    3  A    between atoms: C_4  and  O_18 
    4  A    between atoms: C_5  and  N_12 
    5  A    between atoms: C_6  and  C_7 
    6  A    between atoms: C_7  and  O_21 
    7  A    between atoms: C_7  and  C_8 
    8  A    between atoms: C_8  and  O_23 
    9  A    between atoms: C_8  and  C_9 
   10  A    between atoms: C_9  and  O_25 
       I    between atoms: C_10  and  N_12 

>  <COMPND>
    /home/daniil/Downloads/ml_docking_review/databases/Vina/outputs/7T3E_SLB/7T3E_SLB.pdbqt 

>  <AUTHOR>
    GENERATED BY OPEN BABEL 3.2.1

>  <MASTER>
        0    0    0    0    0    0    0    0   27    0   27    0

$$$$
