../../databases/Vina/outputs/7NLK_UHK/7NLK_UHK1.pdb
 OpenBabel08242616453D

 17 17  0  0  1  0  0  0  0  0999 V2000
   11.1000   11.6220   12.6080 C   0  0  0  0  0  0  0  0  0  0  0  0
   12.4350   12.2170   12.7070 N   0  0  0  0  0  0  0  0  0  0  0  0
   12.5370   13.2320   12.7000 H   0  0  0  0  0  0  0  0  0  0  0  0
   11.0420   10.4630   12.3640 O   0  0  0  0  0  0  0  0  0  0  0  0
   13.6180   11.3780   12.8140 C   0  0  0  0  0  0  0  0  0  0  0  0
   14.4450   11.4370   11.6390 C   0  0  0  0  0  0  0  0  0  0  0  0
   15.6700   10.7950   11.5560 C   0  0  0  0  0  0  0  0  0  0  0  0
   16.1190   10.1100   12.6420 C   0  0  0  0  0  0  0  0  0  0  0  0
   17.4620    9.3920   12.5580 C   0  0  0  0  0  0  0  0  0  0  0  0
   15.3760   10.0980   13.8100 C   0  0  0  0  0  0  0  0  0  0  0  0
   14.1530   10.7650   13.9130 C   0  0  0  0  0  0  0  0  0  0  0  0
    9.8100   12.5140   12.7630 C   0  0  1  0  0  0  0  0  0  0  0  0
   10.2160   14.3340   12.3430 S   0  0  0  0  0  0  0  0  0  0  0  0
    8.7600   11.6970   12.0500 C   0  0  0  0  0  0  0  0  0  0  0  0
    7.5270   12.6030   12.0480 C   0  0  0  0  0  0  0  0  0  0  0  0
    7.0560   12.9340   13.4650 C   0  0  0  0  0  0  0  0  0  0  0  0
    6.3740   11.9110   11.3160 C   0  0  0  0  0  0  0  0  0  0  0  0
  1  4  2  0  0  0  0
  1  2  1  0  0  0  0
  1 12  1  0  0  0  0
  2  3  1  0  0  0  0
  2  5  1  0  0  0  0
  5  6  2  0  0  0  0
  5 11  1  0  0  0  0
  6  7  1  0  0  0  0
  7  8  2  0  0  0  0
  8  9  1  0  0  0  0
  8 10  1  0  0  0  0
 10 11  2  0  0  0  0
 12 14  1  0  0  0  0
 12 13  1  6  0  0  0
 14 15  1  0  0  0  0
 15 17  1  0  0  0  0
 15 16  1  0  0  0  0
M  END
>  <MODEL>
1

>  <REMARK>
 VINA RESULT:    -6.213      0.000      0.000
 INTER + INTRA:          -7.877
 INTER:                  -7.666
 INTRA:                  -0.210
 UNBOUND:                -0.210
  4 active torsions:
  status: ('A' for Active; 'I' for Inactive)
    1  A    between atoms: C_1  and  C_10 
    2  A    between atoms: C_1  and  C_11 
    3  A    between atoms: C_8  and  N_14 
       I    between atoms: C_9  and  N_14 
    4  A    between atoms: C_9  and  C_10 

>  <COMPND>
    /home/daniil/Downloads/ml_docking_review/databases/Vina/outputs/7NLK_UHK/7NLK_UHK.pdbqt 

>  <AUTHOR>
    GENERATED BY OPEN BABEL 3.2.1

>  <MASTER>
        0    0    0    0    0    0    0    0   17    0   17    0

$$$$
