../../databases/Vina/outputs/7SIU_9ID/7SIU_9ID1.pdb
 OpenBabel08242616453D

 38 41  0  0  1  0  0  0  0  0999 V2000
  -31.0370    4.4410  -21.9660 N   0  0  0  0  0  0  0  0  0  0  0  0
  -30.0230    4.3450  -22.0300 H   0  0  0  0  0  0  0  0  0  0  0  0
  -33.0280    4.6670  -20.6990 C   0  0  0  0  0  0  0  0  0  0  0  0
  -31.6480    4.4910  -20.7750 C   0  0  0  0  0  0  0  0  0  0  0  0
  -31.7900    4.5190  -23.0680 C   0  0  0  0  0  0  0  0  0  0  0  0
  -33.8000    4.7410  -21.7950 N   0  0  0  0  0  0  0  0  0  0  0  0
  -34.8100    4.8620  -21.7220 H   0  0  0  0  0  0  0  0  0  0  0  0
  -33.1930    4.6500  -22.9920 C   0  0  0  0  0  0  0  0  0  0  0  0
  -30.8280    4.2920  -19.5730 C   0  0  0  0  0  0  0  0  0  0  0  0
  -31.3370    4.4960  -18.3240 C   0  0  0  0  0  0  0  0  0  0  0  0
  -30.5250    4.4070  -17.0640 C   0  0  0  0  0  0  0  0  0  0  0  0
  -29.2070    3.6740  -17.2960 C   0  0  0  0  0  0  0  0  0  0  0  0
  -28.5210    4.1700  -18.5610 C   0  0  2  0  0  0  0  0  0  0  0  0
  -29.3910    3.8650  -19.7800 C   0  0  0  0  0  0  0  0  0  0  0  0
  -27.2210    3.5260  -18.7210 N   0  0  0  0  0  0  0  0  0  0  0  0
  -26.0840    4.1010  -18.3110 C   0  0  0  0  0  0  0  0  0  0  0  0
  -26.0700    5.1830  -17.7290 O   0  0  0  0  0  0  0  0  0  0  0  0
  -27.1780    2.6070  -19.1600 H   0  0  0  0  0  0  0  0  0  0  0  0
  -24.8230    3.3480  -18.5760 C   0  0  0  0  0  0  0  0  0  0  0  0
  -24.5520    2.8060  -19.8320 C   0  0  0  0  0  0  0  0  0  0  0  0
  -23.4110    2.0490  -20.0340 C   0  0  0  0  0  0  0  0  0  0  0  0
  -22.5330    1.8210  -18.9960 C   0  0  0  0  0  0  0  0  0  0  0  0
  -22.7830    2.3700  -17.7540 C   0  0  0  0  0  0  0  0  0  0  0  0
  -23.9150    3.1370  -17.5430 C   0  0  0  0  0  0  0  0  0  0  0  0
  -31.0300    4.4510  -24.3750 C   0  0  0  0  0  0  0  0  0  0  0  0
  -29.8510    3.8200  -24.3370 N   0  0  0  0  0  0  0  0  0  0  0  0
  -29.4630    3.4280  -23.4790 H   0  0  0  0  0  0  0  0  0  0  0  0
  -29.3390    3.7740  -25.2180 H   0  0  0  0  0  0  0  0  0  0  0  0
  -31.5060    4.9320  -25.4280 O   0  0  0  0  0  0  0  0  0  0  0  0
  -34.0040    4.6360  -24.1330 N   0  0  0  0  0  0  0  0  0  0  0  0
  -33.5270    4.7630  -25.0260 H   0  0  0  0  0  0  0  0  0  0  0  0
  -35.3950    4.4670  -24.1960 C   0  0  0  0  0  0  0  0  0  0  0  0
  -36.3470    4.3220  -23.2320 C   0  0  0  0  0  0  0  0  0  0  0  0
  -37.5270    4.3170  -23.8600 N   0  0  0  0  0  0  0  0  0  0  0  0
  -37.3870    4.4490  -25.2220 N   0  0  0  0  0  0  0  0  0  0  0  0
  -38.8500    4.1730  -23.2680 C   0  0  0  0  0  0  0  0  0  0  0  0
  -36.0800    4.5310  -25.4150 C   0  0  0  0  0  0  0  0  0  0  0  0
  -38.1250    4.4770  -25.9260 H   0  0  0  0  0  0  0  0  0  0  0  0
  1  5  1  0  0  0  0
  1  2  1  0  0  0  0
  1  4  1  0  0  0  0
  3  6  1  0  0  0  0
  3  4  2  0  0  0  0
  4  9  1  0  0  0  0
  5 25  1  0  0  0  0
  5  8  2  0  0  0  0
  6  8  1  0  0  0  0
  6  7  1  0  0  0  0
  8 30  1  0  0  0  0
  9 14  1  0  0  0  0
  9 10  2  0  0  0  0
 10 11  1  0  0  0  0
 11 12  1  0  0  0  0
 12 13  1  0  0  0  0
 13 14  1  0  0  0  0
 13 15  1  6  0  0  0
 15 18  1  0  0  0  0
 15 16  1  0  0  0  0
 16 19  1  0  0  0  0
 16 17  2  0  0  0  0
 19 20  2  0  0  0  0
 19 24  1  0  0  0  0
 20 21  1  0  0  0  0
 21 22  2  0  0  0  0
 22 23  1  0  0  0  0
 23 24  2  0  0  0  0
 25 29  2  0  0  0  0
 25 26  1  0  0  0  0
 26 28  1  0  0  0  0
 26 27  1  0  0  0  0
 30 31  1  0  0  0  0
 30 32  1  0  0  0  0
 32 37  2  0  0  0  0
 32 33  1  0  0  0  0
 33 34  1  0  0  0  0
 34 35  1  0  0  0  0
 34 36  1  0  0  0  0
 35 38  1  0  0  0  0
 35 37  1  0  0  0  0
M  END
>  <MODEL>
1

>  <REMARK>
 VINA RESULT:   -10.550      0.000      0.000
 INTER + INTRA:         -14.889
 INTER:                 -14.251
 INTRA:                  -0.638
 UNBOUND:                -0.638
  6 active torsions:
  status: ('A' for Active; 'I' for Inactive)
    1  A    between atoms: N_1  and  C_32 
    2  A    between atoms: N_1  and  C_33 
    3  A    between atoms: C_6  and  C_9 
    4  A    between atoms: C_7  and  C_8 
       I    between atoms: C_8  and  N_28 
    5  A    between atoms: C_12  and  C_17 
       I    between atoms: C_17  and  N_21 
    6  A    between atoms: N_21  and  C_23 

>  <COMPND>
    /home/daniil/Downloads/ml_docking_review/databases/Vina/outputs/7SIU_9ID/7SIU_9ID.pdbqt 

>  <AUTHOR>
    GENERATED BY OPEN BABEL 3.2.1

>  <MASTER>
        0    0    0    0    0    0    0    0   38    0   38    0

$$$$
