../../databases/Vina/outputs/7ZZB_KGX/7ZZB_KGX1.pdb
 OpenBabel08242616453D

 70 75  0  0  1  0  0  0  0  0999 V2000
   22.3040    6.2100   13.5780 C   0  0  1  0  0  0  0  0  0  0  0  0
   21.5400    7.2080   12.9880 N   0  0  1  0  0  0  0  0  0  0  0  0
   21.6110    5.4100   11.7270 C   0  0  0  0  0  0  0  0  0  0  0  0
   21.0910    6.6900   11.7990 C   0  0  2  0  0  0  0  0  0  0  0  0
   20.1130    6.4970    9.8380 C   0  0  0  0  0  0  0  0  0  0  0  0
   21.3240    4.6700   10.5660 C   0  0  0  0  0  0  0  0  0  0  0  0
   22.3580    5.1070   12.8570 N   0  0  0  0  0  0  0  0  0  0  0  0
   22.8380    4.2340   13.0780 H   0  0  0  0  0  0  0  0  0  0  0  0
   20.3260    7.2940   10.8850 N   0  0  0  0  0  0  0  0  0  0  0  0
   19.9540    8.2400   10.9760 H   0  0  0  0  0  0  0  0  0  0  0  0
   20.5450    5.2530    9.6340 N   0  0  0  0  0  0  0  0  0  0  0  0
   20.2890    4.7490    8.7850 H   0  0  0  0  0  0  0  0  0  0  0  0
   22.9760    6.3960   14.8120 C   0  0  0  0  0  0  0  0  0  0  0  0
   23.6430    6.6750   15.7590 C   0  0  0  0  0  0  0  0  0  0  0  0
   24.3550    6.9070   17.0290 C   0  0  0  0  0  0  0  0  0  0  0  0
   24.2990    8.2930   17.5070 N   0  0  0  0  0  0  0  0  0  0  0  0
   23.6280    9.1760   16.5540 C   0  0  0  0  0  0  0  0  0  0  0  0
   22.9370   10.4020   17.1090 C   0  0  0  0  0  0  0  0  0  0  0  0
   23.7210   11.3830   17.4880 O   0  0  0  0  0  0  0  0  0  0  0  0
   21.7230   10.4610   17.2040 O   0  0  0  0  0  0  0  0  0  0  0  0
   23.8100    8.4530   18.8870 C   0  0  0  0  0  0  0  0  0  0  0  0
   24.9760    8.7680   19.8000 C   0  0  2  0  0  0  0  0  0  0  0  0
   24.8040    8.2260   21.2150 C   0  0  2  0  0  0  0  0  0  0  0  0
   25.7630    9.1160   22.0220 C   0  0  2  0  0  0  0  0  0  0  0  0
   25.8650   10.3790   21.1580 C   0  0  1  0  0  0  0  0  0  0  0  0
   25.0630   10.1930   19.9960 O   0  0  0  0  0  0  0  0  0  0  0  0
   25.2280    6.8790   21.2800 O   0  0  0  0  0  0  0  0  0  0  0  0
   25.0240    6.4370   20.4640 H   0  0  0  0  0  0  0  0  0  0  0  0
   27.0690    8.5500   22.1240 O   0  0  0  0  0  0  0  0  0  0  0  0
   26.9970    7.7400   22.6150 H   0  0  0  0  0  0  0  0  0  0  0  0
   25.4770   11.6000   21.8190 N   0  0  0  0  0  0  0  0  0  0  0  0
   25.3190   11.8460   23.1620 C   0  0  0  0  0  0  0  0  0  0  0  0
   25.0610   13.1020   23.4460 N   0  0  0  0  0  0  0  0  0  0  0  0
   25.0450   13.7230   22.2030 C   0  0  0  0  0  0  0  0  0  0  0  0
   24.9090   13.5220   24.3630 H   0  0  0  0  0  0  0  0  0  0  0  0
   24.8580   15.0620   21.8090 C   0  0  1  0  0  0  0  0  0  0  0  0
   25.2880   12.8050   21.1940 C   0  0  0  0  0  0  0  0  0  0  0  0
   24.9470   15.3430   20.4920 N   0  0  0  0  0  0  0  0  0  0  0  0
   25.1710   14.3500   19.6310 C   0  0  0  0  0  0  0  0  0  0  0  0
   24.8460   16.3020   20.1600 H   0  0  0  0  0  0  0  0  0  0  0  0
   25.3560   13.0570   19.8770 N   0  0  0  0  0  0  0  0  0  0  0  0
   25.5250   12.3500   19.1620 H   0  0  0  0  0  0  0  0  0  0  0  0
   24.5710   16.0630   22.6580 N   0  0  0  0  0  0  0  0  0  0  0  0
   24.1360   16.9430   22.3790 H   0  0  0  0  0  0  0  0  0  0  0  0
   24.8180   15.9510   23.6410 H   0  0  0  0  0  0  0  0  0  0  0  0
   21.2080    8.5330   13.4790 C   0  0  1  0  0  0  0  0  0  0  0  0
   21.8180    9.7130   12.7290 C   0  0  1  0  0  0  0  0  0  0  0  0
   20.9550   10.8180   13.3150 C   0  0  1  0  0  0  0  0  0  0  0  0
   19.5730   10.1700   13.2810 C   0  0  2  0  0  0  0  0  0  0  0  0
   19.8100    8.7420   13.4270 O   0  0  0  0  0  0  0  0  0  0  0  0
   23.1990    9.8940   13.0030 O   0  0  0  0  0  0  0  0  0  0  0  0
   23.7460    9.2140   12.6290 H   0  0  0  0  0  0  0  0  0  0  0  0
   21.3770   11.2010   14.6230 O   0  0  0  0  0  0  0  0  0  0  0  0
   21.3560   10.4770   15.2370 H   0  0  0  0  0  0  0  0  0  0  0  0
   18.8590   10.4180   11.9660 C   0  0  0  0  0  0  0  0  0  0  0  0
   17.8880    9.4110   11.5930 N   0  0  0  0  0  0  0  0  0  0  0  0
   16.6970    9.7350   11.0540 C   0  0  0  0  0  0  0  0  0  0  0  0
   16.3420   10.9040   10.9000 O   0  0  0  0  0  0  0  0  0  0  0  0
   15.9120    8.6780   10.7340 N   0  0  0  0  0  0  0  0  0  0  0  0
   16.1960    7.7470   11.0420 H   0  0  0  0  0  0  0  0  0  0  0  0
   18.1120    8.4280   11.7430 H   0  0  0  0  0  0  0  0  0  0  0  0
   14.6790    8.8140    9.9710 C   0  0  0  0  0  0  0  0  0  0  0  0
   14.9960    8.9350    8.4980 C   0  0  0  0  0  0  0  0  0  0  0  0
   14.4030   10.1530    7.9210 N   0  0  0  0  0  4  0  0  0  0  0  0
   13.3840   10.1050    7.9100 H   0  0  0  0  0  0  0  0  0  0  0  0
   14.5160   10.9540    8.5410 H   0  0  0  0  0  0  0  0  0  0  0  0
   14.7770   10.3430    6.9910 H   0  0  0  0  0  0  0  0  0  0  0  0
   21.8250    3.4550   10.3120 N   0  0  0  0  0  0  0  0  0  0  0  0
   22.7280    3.3890    9.8430 H   0  0  0  0  0  0  0  0  0  0  0  0
   21.3770    2.5840   10.5970 H   0  0  0  0  0  0  0  0  0  0  0  0
  1  7  1  0  0  0  0
  1  2  1  0  0  0  0
  1 13  1  6  0  0  0
  2  4  1  0  0  0  0
  2 46  1  1  0  0  0
  3  6  2  0  0  0  0
  3  7  1  0  0  0  0
  4  3  1  6  0  0  0
  4  9  1  0  0  0  0
  5 11  1  0  0  0  0
  5  9  1  0  0  0  0
  6 11  1  0  0  0  0
  6 68  1  0  0  0  0
  7  8  1  0  0  0  0
  9 10  1  0  0  0  0
 11 12  1  0  0  0  0
 13 14  3  0  0  0  0
 14 15  1  0  0  0  0
 15 16  1  0  0  0  0
 16 17  1  0  0  0  0
 16 21  1  0  0  0  0
 17 18  1  0  0  0  0
 18 20  2  0  0  0  0
 18 19  1  0  0  0  0
 22 21  1  6  0  0  0
 22 26  1  0  0  0  0
 22 23  1  0  0  0  0
 23 27  1  6  0  0  0
 23 24  1  0  0  0  0
 24 25  1  0  0  0  0
 24 29  1  6  0  0  0
 25 26  1  0  0  0  0
 25 31  1  1  0  0  0
 27 28  1  0  0  0  0
 29 30  1  0  0  0  0
 31 37  1  0  0  0  0
 31 32  1  0  0  0  0
 32 33  1  0  0  0  0
 33 34  1  0  0  0  0
 33 35  1  0  0  0  0
 34 37  2  0  0  0  0
 34 36  1  0  0  0  0
 36 38  1  0  0  0  0
 36 43  1  6  0  0  0
 37 41  1  0  0  0  0
 38 39  1  0  0  0  0
 38 40  1  0  0  0  0
 39 41  1  0  0  0  0
 41 42  1  0  0  0  0
 43 44  1  0  0  0  0
 43 45  1  0  0  0  0
 46 47  1  0  0  0  0
 46 50  1  6  0  0  0
 47 51  1  1  0  0  0
 47 48  1  0  0  0  0
 48 49  1  0  0  0  0
 48 53  1  1  0  0  0
 49 55  1  6  0  0  0
 49 50  1  0  0  0  0
 51 52  1  0  0  0  0
 53 54  1  0  0  0  0
 55 56  1  0  0  0  0
 56 57  1  0  0  0  0
 56 61  1  0  0  0  0
 57 59  1  0  0  0  0
 57 58  2  0  0  0  0
 59 62  1  0  0  0  0
 59 60  1  0  0  0  0
 62 63  1  0  0  0  0
 63 64  1  0  0  0  0
 64 67  1  0  0  0  0
 64 65  1  0  0  0  0
 64 66  1  0  0  0  0
 68 69  1  0  0  0  0
 68 70  1  0  0  0  0
M  END
>  <MODEL>
1

>  <REMARK>
 VINA RESULT:    -9.191      0.000      0.000
 INTER + INTRA:         -20.746
 INTER:                 -18.056
 INTRA:                  -2.690
 UNBOUND:                -2.690
  20 active torsions:
  status: ('A' for Active; 'I' for Inactive)
       I    between atoms: N_1  and  C_20 
    1  A    between atoms: N_1  and  C_9 
    2  A    between atoms: C_3  and  O_65 
    3  A    between atoms: C_4  and  C_7 
       I    between atoms: N_5  and  C_20 
    4  A    between atoms: N_5  and  C_17 
    5  A    between atoms: C_9  and  C_26 
    6  A    between atoms: O_10  and  C_34 
    7  A    between atoms: C_12  and  N_14 
    8  A    between atoms: C_13  and  O_18 
    9  A    between atoms: C_15  and  C_17 
   10  A    between atoms: N_21  and  C_29 
   11  A    between atoms: N_21  and  C_40 
   12  A    between atoms: N_21  and  C_30 
   13  A    between atoms: N_22  and  C_26 
   14  A    between atoms: C_28  and  C_29 
   15  A    between atoms: C_30  and  C_31 
   16  A    between atoms: C_32  and  N_55 
   17  A    between atoms: C_33  and  O_67 
   18  A    between atoms: C_39  and  N_62 
   19  A    between atoms: C_40  and  C_41 
   20  A    between atoms: C_45  and  N_52 

>  <COMPND>
    /home/daniil/Downloads/ml_docking_review/databases/Vina/outputs/7ZZB_KGX/7ZZB_KGX.pdbqt 

>  <AUTHOR>
    GENERATED BY OPEN BABEL 3.2.1

>  <MASTER>
        0    0    0    0    0    0    0    0   70    0   70    0

$$$$
