../../databases/Vina/outputs/7JHQ_VAJ/7JHQ_VAJ1.pdb
 OpenBabel08242616453D

 18 19  0  0  0  0  0  0  0  0999 V2000
   38.3240  -42.3660   11.9090 C   0  0  0  0  0  0  0  0  0  0  0  0
   39.2670  -41.6810   12.6670 C   0  0  0  0  0  0  0  0  0  0  0  0
   39.0140  -40.4000   13.1190 C   0  0  0  0  0  0  0  0  0  0  0  0
   37.8140  -39.7550   12.8330 C   0  0  0  0  0  0  0  0  0  0  0  0
   36.8760  -40.4470   12.0670 C   0  0  0  0  0  0  0  0  0  0  0  0
   37.1240  -41.7290   11.6110 C   0  0  0  0  0  0  0  0  0  0  0  0
   37.5350  -38.3870   13.3390 C   0  0  0  0  0  0  0  0  0  0  0  0
   36.8940  -38.1960   14.5650 C   0  0  0  0  0  0  0  0  0  0  0  0
   36.6120  -36.9170   15.0380 C   0  0  0  0  0  0  0  0  0  0  0  0
   36.9860  -35.8150   14.2810 C   0  0  0  0  0  0  0  0  0  0  0  0
   37.6240  -35.9870   13.0660 C   0  0  0  0  0  0  0  0  0  0  0  0
   37.8950  -37.2620   12.5960 C   0  0  0  0  0  0  0  0  0  0  0  0
   35.8890  -36.7320   16.3270 C   0  0  0  0  0  0  0  0  0  0  0  0
   35.0380  -37.5270   16.6990 O   0  0  0  0  0  0  0  0  0  0  0  0
   36.2320  -35.6740   17.0110 O   0  0  0  0  0  0  0  0  0  0  0  0
   38.5870  -43.7560   11.4480 C   0  0  0  0  0  0  0  0  0  0  0  0
   37.7690  -44.6530   11.6060 O   0  0  0  0  0  0  0  0  0  0  0  0
   39.7380  -43.9310   10.8660 O   0  0  0  0  0  0  0  0  0  0  0  0
  1 16  1  0  0  0  0
  1  6  2  0  0  0  0
  1  2  1  0  0  0  0
  2  3  2  0  0  0  0
  3  4  1  0  0  0  0
  4  5  2  0  0  0  0
  4  7  1  0  0  0  0
  5  6  1  0  0  0  0
  7 12  2  0  0  0  0
  7  8  1  0  0  0  0
  8  9  2  0  0  0  0
  9 10  1  0  0  0  0
  9 13  1  0  0  0  0
 10 11  2  0  0  0  0
 11 12  1  0  0  0  0
 13 14  2  0  0  0  0
 13 15  1  0  0  0  0
 16 18  2  0  0  0  0
 16 17  1  0  0  0  0
M  END
>  <MODEL>
1

>  <REMARK>
 VINA RESULT:    -8.540      0.000      0.000
 INTER + INTRA:         -10.492
 INTER:                 -10.038
 INTRA:                  -0.454
 UNBOUND:                -0.454
  3 active torsions:
  status: ('A' for Active; 'I' for Inactive)
    1  A    between atoms: C_1  and  C_9 
    2  A    between atoms: C_4  and  C_5 
    3  A    between atoms: C_8  and  C_11 

>  <COMPND>
    /home/daniil/Downloads/ml_docking_review/databases/Vina/outputs/7JHQ_VAJ/7JHQ_VAJ.pdbqt 

>  <AUTHOR>
    GENERATED BY OPEN BABEL 3.2.1

>  <MASTER>
        0    0    0    0    0    0    0    0   18    0   18    0

$$$$
