../../databases/Vina/outputs/7E2S_BLA/7E2S_BLA1.pdb
 OpenBabel08242616453D

 47 50  0  0  1  0  0  0  0  0999 V2000
   -8.6440  -21.4730  -21.3350 C   0  0  0  0  0  0  0  0  0  0  0  0
   -6.6390  -21.6240  -19.8470 N   0  0  0  0  0  0  0  0  0  0  0  0
   -6.5990  -22.6310  -19.6850 H   0  0  0  0  0  0  0  0  0  0  0  0
   -5.7120  -20.6530  -19.3090 C   0  0  0  0  0  0  0  0  0  0  0  0
   -6.1230  -19.3280  -19.7430 C   0  0  0  0  0  0  0  0  0  0  0  0
   -7.3090  -19.4720  -20.5570 C   0  0  0  0  0  0  0  0  0  0  0  0
   -7.6550  -20.9320  -20.6670 C   0  0  0  0  0  0  0  0  0  0  0  0
   -5.4340  -18.0360  -19.3750 C   0  0  0  0  0  0  0  0  0  0  0  0
   -8.7190  -22.9580  -21.5460 C   0  0  0  0  0  0  0  0  0  0  0  0
   -7.9960  -23.8580  -20.8550 N   0  0  0  0  0  0  0  0  0  0  0  0
   -8.3270  -25.0760  -21.3170 C   0  0  0  0  0  0  0  0  0  0  0  0
   -7.3220  -23.6540  -20.1170 H   0  0  0  0  0  0  0  0  0  0  0  0
   -9.2840  -24.9390  -22.2970 C   0  0  0  0  0  0  0  0  0  0  0  0
   -9.5230  -23.6190  -22.4530 C   0  0  0  0  0  0  0  0  0  0  0  0
   -9.9250  -26.0890  -23.0760 C   0  0  0  0  0  0  0  0  0  0  0  0
   -7.8160  -26.3840  -20.7910 C   0  0  0  0  0  0  0  0  0  0  0  0
   -6.5620  -26.6650  -20.6240 C   0  0  0  0  0  0  0  0  0  0  0  0
   -5.4560  -25.7430  -20.2120 N   0  0  0  0  0  0  0  0  0  0  0  0
   -4.1720  -26.5200  -20.2220 C   0  0  0  0  0  0  0  0  0  0  0  0
   -5.5580  -24.7580  -19.9680 H   0  0  0  0  0  0  0  0  0  0  0  0
   -3.1190  -26.0520  -19.9540 O   0  0  0  0  0  0  0  0  0  0  0  0
   -4.5580  -27.9080  -20.6070 C   0  0  1  0  0  0  0  0  0  0  0  0
   -5.9360  -27.9730  -20.8420 C   0  0  0  0  0  0  0  0  0  0  0  0
   -6.7110  -29.2070  -21.2450 C   0  0  0  0  0  0  0  0  0  0  0  0
   -3.5930  -29.0680  -20.7530 C   0  0  0  0  0  0  0  0  0  0  0  0
   -3.0140  -29.5990  -19.7080 C   0  0  0  0  0  0  0  0  0  0  0  0
  -10.5000  -22.9690  -23.4350 C   0  0  0  0  0  0  0  0  0  0  0  0
   -9.8970  -22.9170  -24.8320 C   0  0  0  0  0  0  0  0  0  0  0  0
   -9.0940  -21.6300  -25.0440 C   0  0  0  0  0  0  0  0  0  0  0  0
   -9.7010  -20.5380  -25.1840 O   0  0  0  0  0  0  0  0  0  0  0  0
   -7.8380  -21.6420  -25.0830 O   0  0  0  0  0  0  0  0  0  0  0  0
   -8.0900  -18.3710  -21.2330 C   0  0  0  0  0  0  0  0  0  0  0  0
   -8.2040  -18.6410  -22.7360 C   0  0  0  0  0  0  0  0  0  0  0  0
   -6.9600  -18.2020  -23.5060 C   0  0  0  0  0  0  0  0  0  0  0  0
   -6.8410  -17.0000  -23.8690 O   0  0  0  0  0  0  0  0  0  0  0  0
   -6.0610  -19.0320  -23.7880 O   0  0  0  0  0  0  0  0  0  0  0  0
   -4.5220  -20.9760  -18.4680 C   0  0  0  0  0  0  0  0  0  0  0  0
   -4.3600  -22.1680  -17.9940 C   0  0  0  0  0  0  0  0  0  0  0  0
   -5.4090  -23.2470  -17.9600 N   0  0  0  0  0  0  0  0  0  0  0  0
   -3.1410  -22.7710  -17.4190 C   0  0  0  0  0  0  0  0  0  0  0  0
   -4.8050  -24.4640  -17.3280 C   0  0  0  0  0  0  0  0  0  0  0  0
   -6.3650  -23.1640  -18.3060 H   0  0  0  0  0  0  0  0  0  0  0  0
   -5.3920  -25.4640  -17.1530 O   0  0  0  0  0  0  0  0  0  0  0  0
   -3.3990  -24.1050  -17.0430 C   0  0  0  0  0  0  0  0  0  0  0  0
   -2.3870  -25.0440  -16.4130 C   0  0  0  0  0  0  0  0  0  0  0  0
   -1.7690  -22.1140  -17.2800 C   0  0  0  0  0  0  0  0  0  0  0  0
   -1.6220  -20.8500  -16.9920 C   0  0  0  0  0  0  0  0  0  0  0  0
  1  9  1  0  0  0  0
  1  7  1  0  0  0  0
  2  7  1  0  0  0  0
  2  3  1  0  0  0  0
  2  4  1  0  0  0  0
  4  5  2  0  0  0  0
  4 37  1  0  0  0  0
  5  6  1  0  0  0  0
  5  8  1  0  0  0  0
  6 32  1  0  0  0  0
  6  7  2  0  0  0  0
  9 14  2  0  0  0  0
  9 10  1  0  0  0  0
 10 11  1  0  0  0  0
 10 12  1  0  0  0  0
 11 13  2  0  0  0  0
 11 16  1  0  0  0  0
 13 15  1  0  0  0  0
 13 14  1  0  0  0  0
 14 27  1  0  0  0  0
 16 17  1  0  0  0  0
 17 23  2  0  0  0  0
 17 18  1  0  0  0  0
 18 19  1  0  0  0  0
 18 20  1  0  0  0  0
 19 22  1  0  0  0  0
 19 21  2  0  0  0  0
 22 23  1  0  0  0  0
 22 25  1  6  0  0  0
 23 24  1  0  0  0  0
 25 26  2  0  0  0  0
 27 28  1  0  0  0  0
 28 29  1  0  0  0  0
 29 30  2  0  0  0  0
 29 31  1  0  0  0  0
 32 33  1  0  0  0  0
 33 34  1  0  0  0  0
 34 35  2  0  0  0  0
 34 36  1  0  0  0  0
 37 38  2  0  0  0  0
 38 39  1  0  0  0  0
 38 40  1  0  0  0  0
 39 42  1  0  0  0  0
 39 41  1  0  0  0  0
 40 46  1  0  0  0  0
 40 44  2  0  0  0  0
 41 43  2  0  0  0  0
 41 44  1  0  0  0  0
 44 45  1  0  0  0  0
 46 47  2  0  0  0  0
M  END
>  <MODEL>
1

>  <REMARK>
 VINA RESULT:   -10.998      0.000      0.000
 INTER + INTRA:         -20.067
 INTER:                 -18.714
 INTRA:                  -1.353
 UNBOUND:                -1.353
  12 active torsions:
  status: ('A' for Active; 'I' for Inactive)
    1  A    between atoms: C_1  and  C_4 
    2  A    between atoms: C_5  and  C_9 
    3  A    between atoms: C_7  and  C_14 
    4  A    between atoms: C_9  and  C_10 
    5  A    between atoms: C_10  and  C_11 
    6  A    between atoms: C_14  and  C_17 
    7  A    between atoms: C_19  and  C_23 
    8  A    between atoms: C_29  and  C_33 
    9  A    between atoms: C_35  and  C_38 
   10  A    between atoms: C_40  and  C_43 
   11  A    between atoms: C_43  and  C_44 
   12  A    between atoms: C_44  and  C_45 

>  <COMPND>
    /home/daniil/Downloads/ml_docking_review/databases/Vina/outputs/7E2S_BLA/7E2S_BLA.pdbqt 

>  <AUTHOR>
    GENERATED BY OPEN BABEL 3.2.1

>  <MASTER>
        0    0    0    0    0    0    0    0   47    0   47    0

$$$$
