../../databases/Vina/outputs/7PJQ_OWH/7PJQ_OWH1.pdb
 OpenBabel08242616453D

 12 12  0  0  0  0  0  0  0  0999 V2000
   11.5110   26.1190   -5.9090 C   0  0  0  0  0  0  0  0  0  0  0  0
   12.8280   26.4660   -5.6660 C   0  0  0  0  0  0  0  0  0  0  0  0
   12.5810   28.4120   -6.8440 C   0  0  0  0  0  0  0  0  0  0  0  0
   11.2540   28.1290   -7.1260 C   0  0  0  0  0  0  0  0  0  0  0  0
   10.7050   26.9530   -6.6520 C   0  0  0  0  0  0  0  0  0  0  0  0
   13.3400   27.5950   -6.1310 N   0  0  0  0  0  0  0  0  0  0  0  0
   14.3130   27.8330   -5.9410 H   0  0  0  0  0  0  0  0  0  0  0  0
   10.9680   24.8220   -5.3580 C   0  0  0  0  0  0  0  0  0  0  0  0
   10.0320   24.7590   -4.0510 S   0  0  0  0  0  0  0  0  0  0  0  0
   11.3610   23.6630   -6.1040 N   0  0  0  0  0  0  0  0  0  0  0  0
   10.5130   23.1420   -7.1500 C   0  0  0  0  0  0  0  0  0  0  0  0
   12.2470   23.2030   -5.8940 H   0  0  0  0  0  0  0  0  0  0  0  0
  1  5  2  0  0  0  0
  1  2  1  0  0  0  0
  1  8  1  0  0  0  0
  2  6  1  0  0  0  0
  3  4  2  0  0  0  0
  3  6  1  0  0  0  0
  4  5  1  0  0  0  0
  6  7  1  0  0  0  0
  8 10  1  0  0  0  0
  8  9  2  0  0  0  0
 10 11  1  0  0  0  0
 10 12  1  0  0  0  0
M  END
>  <MODEL>
1

>  <REMARK>
 VINA RESULT:    -5.174      0.000      0.000
 INTER + INTRA:          -5.857
 INTER:                  -5.779
 INTRA:                  -0.078
 UNBOUND:                -0.078
  2 active torsions:
  status: ('A' for Active; 'I' for Inactive)
    1  A    between atoms: C_2  and  C_3 
    2  A    between atoms: C_2  and  N_8 

>  <COMPND>
    /home/daniil/Downloads/ml_docking_review/databases/Vina/outputs/7PJQ_OWH/7PJQ_OWH.pdbqt 

>  <AUTHOR>
    GENERATED BY OPEN BABEL 3.2.1

>  <MASTER>
        0    0    0    0    0    0    0    0   12    0   12    0

$$$$
