../../databases/Vina/outputs/5SD5_HWI/5SD5_HWI1.pdb
 OpenBabel08242616453D

 35 37  0  0  1  0  0  0  0  0999 V2000
    8.3560    2.0090   12.8980 C   0  0  0  0  0  0  0  0  0  0  0  0
    8.6190    0.5350   12.6040 C   0  0  0  0  0  0  0  0  0  0  0  0
    7.8270   -0.3400   13.5630 C   0  0  0  0  0  0  0  0  0  0  0  0
    6.4230   -0.0080   13.3360 O   0  0  0  0  0  0  0  0  0  0  0  0
    5.5450   -0.1360   14.4000 C   0  0  0  0  0  0  0  0  0  0  0  0
    4.2300    0.3050   14.2110 C   0  0  0  0  0  0  0  0  0  0  0  0
    3.3560    0.1940   15.2820 C   0  0  0  0  0  0  0  0  0  0  0  0
    3.7710   -0.3060   16.5070 C   0  0  0  0  0  0  0  0  0  0  0  0
    5.0700   -0.7320   16.6980 C   0  0  0  0  0  0  0  0  0  0  0  0
    5.5250   -1.2970   18.0340 C   0  0  0  0  0  0  0  0  0  0  0  0
    5.9490   -0.6390   15.6180 C   0  0  0  0  0  0  0  0  0  0  0  0
    3.8310    0.7710   12.9770 N   0  0  0  0  0  0  0  0  0  0  0  0
    3.2260    2.0960   12.6980 C   0  0  0  0  0  0  0  0  0  0  0  0
    2.1780    1.4050   11.7610 C   0  0  2  0  0  0  0  0  0  0  0  0
    2.8850    0.0620   12.0460 C   0  0  0  0  0  0  0  0  0  0  0  0
    2.3190    1.9170   10.2960 C   0  0  0  0  0  0  0  0  0  0  0  0
    1.3460    1.7520    9.5410 O   0  0  0  0  0  0  0  0  0  0  0  0
    3.4270    2.4510    9.9690 O   0  0  0  0  0  0  0  0  0  0  0  0
    8.8570    2.2500   14.2410 O   0  0  0  0  0  0  0  0  0  0  0  0
    8.7380    3.5470   14.7220 C   0  0  0  0  0  0  0  0  0  0  0  0
    9.7480    4.5130   14.4420 C   0  0  1  0  0  0  0  0  0  0  0  0
    9.6290    5.7620   14.9300 N   0  0  0  0  0  0  0  0  0  0  0  0
    8.5520    6.0470   15.6610 C   0  0  1  0  0  0  0  0  0  0  0  0
   10.3410    6.4680   14.7450 H   0  0  0  0  0  0  0  0  0  0  0  0
    7.5960    5.1800   15.9760 N   0  0  0  0  0  0  0  0  0  0  0  0
    7.6850    3.9220   15.4970 C   0  0  0  0  0  0  0  0  0  0  0  0
    6.8120    5.4600   16.5660 H   0  0  0  0  0  0  0  0  0  0  0  0
   10.8150    4.2260   13.7100 N   0  0  0  0  0  0  0  0  0  0  0  0
   11.6980    4.7260   13.8180 H   0  0  0  0  0  0  0  0  0  0  0  0
   10.7390    3.4790   13.0190 H   0  0  0  0  0  0  0  0  0  0  0  0
    8.4110    7.3070   16.1480 N   0  0  0  0  0  0  0  0  0  0  0  0
    7.6920    7.8840   15.7120 H   0  0  0  0  0  0  0  0  0  0  0  0
    9.0080    7.6030   16.9200 H   0  0  0  0  0  0  0  0  0  0  0  0
    6.5500    2.9920   15.8580 C   0  0  0  0  0  0  0  0  0  0  0  0
    5.1910    3.6270   15.4820 C   0  0  0  0  0  0  0  0  0  0  0  0
  1  2  1  0  0  0  0
  1 19  1  0  0  0  0
  2  3  1  0  0  0  0
  3  4  1  0  0  0  0
  4  5  1  0  0  0  0
  5  6  2  0  0  0  0
  5 11  1  0  0  0  0
  6 12  1  0  0  0  0
  6  7  1  0  0  0  0
  7  8  2  0  0  0  0
  8  9  1  0  0  0  0
  9 11  2  0  0  0  0
  9 10  1  0  0  0  0
 12 15  1  0  0  0  0
 12 13  1  0  0  0  0
 13 14  1  0  0  0  0
 14 16  1  6  0  0  0
 14 15  1  0  0  0  0
 16 17  2  0  0  0  0
 16 18  1  0  0  0  0
 19 20  1  0  0  0  0
 20 21  1  0  0  0  0
 20 26  2  0  0  0  0
 21 28  1  1  0  0  0
 21 22  1  0  0  0  0
 22 24  1  0  0  0  0
 22 23  1  0  0  0  0
 23 25  1  0  0  0  0
 23 31  1  1  0  0  0
 25 26  1  0  0  0  0
 25 27  1  0  0  0  0
 26 34  1  0  0  0  0
 28 30  1  0  0  0  0
 28 29  1  0  0  0  0
 31 32  1  0  0  0  0
 31 33  1  0  0  0  0
 34 35  1  0  0  0  0
M  END
>  <MODEL>
1

>  <REMARK>
 VINA RESULT:    -9.264      0.000      0.000
 INTER + INTRA:         -15.796
 INTER:                 -14.679
 INTRA:                  -1.117
 UNBOUND:                -1.117
  11 active torsions:
  status: ('A' for Active; 'I' for Inactive)
    1  A    between atoms: C_1  and  O_32 
    2  A    between atoms: C_2  and  C_8 
    3  A    between atoms: C_2  and  C_9 
    4  A    between atoms: C_6  and  N_31 
    5  A    between atoms: C_8  and  O_32 
    6  A    between atoms: C_9  and  O_33 
    7  A    between atoms: C_10  and  O_33 
    8  A    between atoms: C_14  and  C_15 
    9  A    between atoms: C_16  and  N_23 
   10  A    between atoms: C_17  and  N_28 
   11  A    between atoms: C_18  and  C_20 

>  <COMPND>
    /home/daniil/Downloads/ml_docking_review/databases/Vina/outputs/5SD5_HWI/5SD5_HWI.pdbqt 

>  <AUTHOR>
    GENERATED BY OPEN BABEL 3.2.1

>  <MASTER>
        0    0    0    0    0    0    0    0   35    0   35    0

$$$$
