../../databases/Vina/outputs/6Z2C_Q5E/6Z2C_Q5E1.pdb
 OpenBabel08242616453D

 26 28  0  0  1  0  0  0  0  0999 V2000
  -17.4240    4.5230  -10.5540 O   0  0  0  0  0  0  0  0  0  0  0  0
  -18.4670    4.3100  -11.1910 C   0  0  0  0  0  0  0  0  0  0  0  0
  -19.7000    4.1700  -10.5320 C   0  0  1  0  0  0  0  0  0  0  0  0
  -20.3050    5.4860   -9.9320 C   0  0  1  0  0  0  0  0  0  0  0  0
  -21.8040    5.1850   -9.9900 C   0  0  0  0  0  0  0  0  0  0  0  0
  -22.4100    3.7160   -8.9440 Cl  0  0  0  0  0  0  0  0  0  0  0  0
  -22.8540    6.5850   -9.3820 Cl  0  0  0  0  0  0  0  0  0  0  0  0
  -19.6850    5.8980   -8.2790 Cl  0  0  0  0  0  0  0  0  0  0  0  0
  -20.2310    6.5220  -10.8750 C   0  0  0  0  0  0  0  0  0  0  0  0
  -19.0960    7.8530  -10.7210 Cl  0  0  0  0  0  0  0  0  0  0  0  0
  -21.1220    6.2810  -11.8370 C   0  0  0  0  0  0  0  0  0  0  0  0
  -21.4010    7.2490  -13.2320 Cl  0  0  0  0  0  0  0  0  0  0  0  0
  -21.7470    5.0390  -11.4960 C   0  0  2  0  0  0  0  0  0  0  0  0
  -23.3570    4.7080  -12.1910 Cl  0  0  0  0  0  0  0  0  0  0  0  0
  -20.6840    3.8780  -11.6190 C   0  0  1  0  0  0  0  0  0  0  0  0
  -19.9180    3.9070  -12.7720 C   0  0  0  0  0  0  0  0  0  0  0  0
  -20.3920    3.6900  -13.8840 O   0  0  0  0  0  0  0  0  0  0  0  0
  -18.6010    4.1260  -12.5190 N   0  0  0  0  0  0  0  0  0  0  0  0
  -17.6420    4.1700  -13.6400 C   0  0  0  0  0  0  0  0  0  0  0  0
  -17.7110    5.4830  -14.4220 C   0  0  0  0  0  0  0  0  0  0  0  0
  -16.3420    6.1090  -14.5240 C   0  0  0  0  0  0  0  0  0  0  0  0
  -15.5070    5.7110  -13.3200 C   0  0  0  0  0  0  0  0  0  0  0  0
  -14.0470    5.5590  -13.7430 C   0  0  0  0  0  0  0  0  0  0  0  0
  -13.7000    4.0810  -13.7920 C   0  0  0  0  0  0  0  0  0  0  0  0
  -12.8120    3.7540  -14.5930 O   0  0  0  0  0  0  0  0  0  0  0  0
  -14.3250    3.3140  -13.0220 O   0  0  0  0  0  0  0  0  0  0  0  0
  1  2  2  0  0  0  0
  2 18  1  0  0  0  0
  3  2  1  6  0  0  0
  3 15  1  0  0  0  0
  3  4  1  0  0  0  0
  4  9  1  0  0  0  0
  4  5  1  0  0  0  0
  4  8  1  1  0  0  0
  5 13  1  0  0  0  0
  5  7  1  0  0  0  0
  5  6  1  0  0  0  0
  9 11  2  0  0  0  0
  9 10  1  0  0  0  0
 11 12  1  0  0  0  0
 11 13  1  0  0  0  0
 13 14  1  6  0  0  0
 13 15  1  0  0  0  0
 15 16  1  6  0  0  0
 16 17  2  0  0  0  0
 16 18  1  0  0  0  0
 18 19  1  0  0  0  0
 19 20  1  0  0  0  0
 20 21  1  0  0  0  0
 21 22  1  0  0  0  0
 22 23  1  0  0  0  0
 23 24  1  0  0  0  0
 24 25  2  0  0  0  0
 24 26  1  0  0  0  0
M  END
>  <MODEL>
1

>  <REMARK>
 VINA RESULT:   -10.623      0.000      0.000
 INTER + INTRA:         -15.054
 INTER:                 -14.350
 INTRA:                  -0.704
 UNBOUND:                -0.704
  6 active torsions:
  status: ('A' for Active; 'I' for Inactive)
    1  A    between atoms: N_18  and  C_19 
    2  A    between atoms: C_19  and  C_20 
    3  A    between atoms: C_20  and  C_21 
    4  A    between atoms: C_21  and  C_22 
    5  A    between atoms: C_22  and  C_23 
    6  A    between atoms: C_23  and  C_24 

>  <COMPND>
    /home/daniil/Downloads/ml_docking_review/databases/Vina/outputs/6Z2C_Q5E/6Z2C_Q5E.pdbqt 

>  <AUTHOR>
    GENERATED BY OPEN BABEL 3.2.1

>  <MASTER>
        0    0    0    0    0    0    0    0   26    0   26    0

$$$$
