../../databases/Vina/outputs/7XG5_PLP/7XG5_PLP1.pdb
 OpenBabel08242616453D

 18 18  0  0  1  0  0  0  0  0999 V2000
  -40.2970  -29.9200   18.7100 N   0  0  0  0  0  0  0  0  0  0  0  0
  -41.1520  -30.2040   19.1880 H   0  0  0  0  0  0  0  0  0  0  0  0
  -39.2170  -30.7030   18.7610 C   0  0  2  0  0  0  0  0  0  0  0  0
  -39.2870  -31.9810   19.5440 C   0  0  0  0  0  0  0  0  0  0  0  0
  -38.0350  -30.3280   18.0960 C   0  0  0  0  0  0  0  0  0  0  0  0
  -38.0080  -29.1180   17.3790 C   0  0  0  0  0  0  0  0  0  0  0  0
  -39.1550  -28.3150   17.3530 C   0  0  0  0  0  0  0  0  0  0  0  0
  -40.2650  -28.7500   18.0250 C   0  0  0  0  0  0  0  0  0  0  0  0
  -39.1640  -27.0110   16.6000 C   0  0  0  0  0  0  0  0  0  0  0  0
  -38.7720  -25.9490   17.5290 O   0  0  0  0  0  0  0  0  0  0  0  0
  -37.6920  -24.8190   17.1070 P   0  0  0  0  0  0  0  0  0  0  0  0
  -38.4870  -23.6260   16.5990 O   0  0  0  0  0  0  0  0  0  0  0  0
  -36.8540  -25.4750   16.0580 O   0  0  0  0  0  0  0  0  0  0  0  0
  -36.9170  -24.4290   18.3970 O   0  0  0  0  0  0  0  0  0  0  0  0
  -36.7880  -28.7020   16.6890 C   0  0  0  0  0  0  0  0  0  0  0  0
  -35.9540  -29.4590   16.2480 O   0  0  0  0  0  0  0  0  0  0  0  0
  -36.9530  -31.1450   18.1600 O   0  0  0  0  0  0  0  0  0  0  0  0
  -36.0910  -30.7620   18.2720 H   0  0  0  0  0  0  0  0  0  0  0  0
  1  8  1  0  0  0  0
  1  3  1  0  0  0  0
  1  2  1  0  0  0  0
  3  5  1  0  0  0  0
  3  4  1  1  0  0  0
  5  6  2  0  0  0  0
  5 17  1  0  0  0  0
  6 15  1  0  0  0  0
  6  7  1  0  0  0  0
  7  9  1  0  0  0  0
  7  8  2  0  0  0  0
  9 10  1  0  0  0  0
 10 11  1  0  0  0  0
 11 13  2  0  0  0  0
 11 12  1  0  0  0  0
 11 14  1  0  0  0  0
 15 16  2  0  0  0  0
 17 18  1  0  0  0  0
M  END
>  <MODEL>
1

>  <REMARK>
 VINA RESULT:    -8.359      0.000      0.000
 INTER + INTRA:         -11.014
 INTER:                 -10.558
 INTRA:                  -0.456
 UNBOUND:                -0.456
  5 active torsions:
  status: ('A' for Active; 'I' for Inactive)
    1  A    between atoms: C_5  and  O_6 
    2  A    between atoms: C_8  and  C_9 
    3  A    between atoms: C_11  and  C_13 
    4  A    between atoms: C_13  and  O_14 
    5  A    between atoms: O_14  and  P_15 

>  <COMPND>
    /home/daniil/Downloads/ml_docking_review/databases/Vina/outputs/7XG5_PLP/7XG5_PLP.pdbqt 

>  <AUTHOR>
    GENERATED BY OPEN BABEL 3.2.1

>  <MASTER>
        0    0    0    0    0    0    0    0   18    0   18    0

$$$$
