../../databases/Vina/outputs/7P1F_KFN/7P1F_KFN1.pdb
 OpenBabel08242612033D

 22 22  0  0  1  0  0  0  0  0999 V2000
  -19.3130  -40.7010   29.3690 C   0  0  0  0  0  0  0  0  0  0  0  0
  -18.8100  -39.3790   29.5210 C   0  0  1  0  0  0  0  0  0  0  0  0
  -17.3300  -39.3610   29.9090 C   0  0  2  0  0  0  0  0  0  0  0  0
  -17.0990  -40.2750   31.1140 C   0  0  1  0  0  0  0  0  0  0  0  0
  -17.5850  -41.6020   30.8110 O   0  0  0  0  0  0  0  0  0  0  0  0
  -18.7080  -41.7770   30.0350 C   0  0  0  0  0  0  0  0  0  0  0  0
  -15.5980  -40.3990   31.4450 C   0  0  2  0  0  0  0  0  0  0  0  0
  -15.2130  -41.7660   31.2190 O   0  0  0  0  0  0  0  0  0  0  0  0
  -15.9160  -42.3190   31.5410 H   0  0  0  0  0  0  0  0  0  0  0  0
  -15.3590  -40.0570   32.9100 C   0  0  2  0  0  0  0  0  0  0  0  0
  -15.0670  -41.2260   33.6900 O   0  0  0  0  0  0  0  0  0  0  0  0
  -14.9630  -41.9970   33.1450 H   0  0  0  0  0  0  0  0  0  0  0  0
  -16.5850  -39.3560   33.5100 C   0  0  0  0  0  0  0  0  0  0  0  0
  -16.2090  -38.7340   34.7440 O   0  0  0  0  0  0  0  0  0  0  0  0
  -15.6210  -38.0120   34.5600 H   0  0  0  0  0  0  0  0  0  0  0  0
  -16.9080  -38.0170   30.2350 O   0  0  0  0  0  0  0  0  0  0  0  0
  -16.0330  -37.8680   29.8950 H   0  0  0  0  0  0  0  0  0  0  0  0
  -19.1800  -43.1070   30.0010 C   0  0  0  0  0  0  0  0  0  0  0  0
  -20.3960  -43.3890   30.1630 O   0  0  0  0  0  0  0  0  0  0  0  0
  -18.3590  -44.0450   29.8390 O   0  0  0  0  0  0  0  0  0  0  0  0
  -19.0210  -38.5650   28.3530 O   0  0  0  0  0  0  0  0  0  0  0  0
  -18.6150  -37.7150   28.4720 H   0  0  0  0  0  0  0  0  0  0  0  0
  1  2  1  0  0  0  0
  1  6  2  0  0  0  0
  2 21  1  6  0  0  0
  2  3  1  0  0  0  0
  3 16  1  1  0  0  0
  3  4  1  0  0  0  0
  4  5  1  0  0  0  0
  4  7  1  6  0  0  0
  5  6  1  0  0  0  0
  6 18  1  0  0  0  0
  7  8  1  1  0  0  0
  7 10  1  0  0  0  0
  8  9  1  0  0  0  0
 10 13  1  1  0  0  0
 10 11  1  0  0  0  0
 11 12  1  0  0  0  0
 13 14  1  0  0  0  0
 14 15  1  0  0  0  0
 16 17  1  0  0  0  0
 18 20  2  0  0  0  0
 18 19  1  0  0  0  0
 21 22  1  0  0  0  0
M  END
>  <MODEL>
1

>  <REMARK>
 VINA RESULT:    -7.145      0.000      0.000
 INTER + INTRA:         -10.269
 INTER:                  -9.860
 INTRA:                  -0.409
 UNBOUND:                -0.409
  9 active torsions:
  status: ('A' for Active; 'I' for Inactive)
    1  A    between atoms: C_1  and  C_16 
    2  A    between atoms: C_3  and  O_13 
    3  A    between atoms: C_4  and  O_9 
    4  A    between atoms: C_5  and  C_6 
    5  A    between atoms: C_6  and  O_17 
    6  A    between atoms: C_6  and  C_7 
    7  A    between atoms: C_7  and  O_19 
    8  A    between atoms: C_7  and  C_8 
    9  A    between atoms: C_8  and  O_21 

>  <COMPND>
    /home/daniil/Downloads/ml_docking_review/databases/Vina/outputs/7P1F_KFN/7P1F_KFN.pdbqt 

>  <AUTHOR>
    GENERATED BY OPEN BABEL 3.2.1

>  <MASTER>
        0    0    0    0    0    0    0    0   22    0   22    0

$$$$
