../../databases/Vina/outputs/7UQ3_O2U/7UQ3_O2U1.pdb
 OpenBabel08242616453D

 13 13  0  0  1  0  0  0  0  0999 V2000
    9.1240  141.5250  101.6720 C   0  0  0  0  0  0  0  0  0  0  0  0
    8.3470  142.5530  101.0210 C   0  0  1  0  0  0  0  0  0  0  0  0
    9.3120  143.1630   99.9990 C   0  0  0  0  0  0  0  0  0  0  0  0
   10.5530  142.6880  100.5290 C   0  0  0  0  0  0  0  0  0  0  0  0
   10.3970  141.7180  101.4270 N   0  0  0  0  0  0  0  0  0  0  0  0
   11.6750  143.0350  100.1490 O   0  0  0  0  0  0  0  0  0  0  0  0
    8.7260  140.6840  102.4780 O   0  0  0  0  0  0  0  0  0  0  0  0
    6.9620  142.1350  100.7130 C   0  0  0  0  0  0  0  0  0  0  0  0
    6.3180  142.7910   99.5020 C   0  0  0  0  0  0  0  0  0  0  0  0
    5.2700  143.4030   99.8040 O   0  0  0  0  0  0  0  0  0  0  0  0
    6.7940  142.6450   98.3720 O   0  0  0  0  0  0  0  0  0  0  0  0
   11.3710  140.9810  102.0900 O   0  0  0  0  0  0  0  0  0  0  0  0
   12.2590  140.9330  101.7550 H   0  0  0  0  0  0  0  0  0  0  0  0
  1  2  1  0  0  0  0
  1  5  1  0  0  0  0
  1  7  2  0  0  0  0
  2  3  1  0  0  0  0
  2  8  1  6  0  0  0
  3  4  1  0  0  0  0
  4  6  2  0  0  0  0
  4  5  1  0  0  0  0
  5 12  1  0  0  0  0
  8  9  1  0  0  0  0
  9 11  2  0  0  0  0
  9 10  1  0  0  0  0
 12 13  1  0  0  0  0
M  END
>  <MODEL>
1

>  <REMARK>
 VINA RESULT:    -7.041      0.000      0.000
 INTER + INTRA:          -7.918
 INTER:                  -8.070
 INTRA:                   0.152
 UNBOUND:                 0.152
  3 active torsions:
  status: ('A' for Active; 'I' for Inactive)
    1  A    between atoms: C_2  and  C_3 
    2  A    between atoms: C_3  and  C_4 
    3  A    between atoms: N_7  and  O_8 

>  <COMPND>
    /home/daniil/Downloads/ml_docking_review/databases/Vina/outputs/7UQ3_O2U/7UQ3_O2U.pdbqt 

>  <AUTHOR>
    GENERATED BY OPEN BABEL 3.2.1

>  <MASTER>
        0    0    0    0    0    0    0    0   13    0   13    0

$$$$
