../../databases/Vina/outputs/7UY4_SMI/7UY4_SMI1.pdb
 OpenBabel08242616453D

 31 33  0  0  1  0  0  0  0  0999 V2000
   -3.9480  -27.0430   15.9780 O   0  0  0  0  0  0  0  0  0  0  0  0
   -4.3880  -25.7150   15.7680 C   0  0  2  0  0  0  0  0  0  0  0  0
   -3.4540  -25.0330   14.7540 C   0  0  0  0  0  0  0  0  0  0  0  0
   -4.2960  -25.0130   17.0650 C   0  0  0  0  0  0  0  0  0  0  0  0
   -5.1760  -25.6570   18.1260 C   0  0  0  0  0  0  0  0  0  0  0  0
   -4.8640  -27.1460   18.1820 C   0  0  1  0  0  0  0  0  0  0  0  0
   -4.8660  -27.7920   16.7750 C   0  0  2  0  0  0  0  0  0  0  0  0
   -3.5680  -27.2650   18.8050 O   0  0  0  0  0  0  0  0  0  0  0  0
   -4.4420  -29.1800   16.8800 O   0  0  0  0  0  0  0  0  0  0  0  0
   -3.1350  -28.6180   18.8150 C   0  0  2  0  0  0  0  0  0  0  0  0
   -1.7030  -28.6690   19.3790 C   0  0  2  0  0  0  0  0  0  0  0  0
   -1.1700  -30.0590   19.4160 C   0  0  2  0  0  0  0  0  0  0  0  0
   -1.3510  -30.7200   18.0440 C   0  0  2  0  0  0  0  0  0  0  0  0
   -2.7210  -30.6580   17.5220 C   0  0  1  0  0  0  0  0  0  0  0  0
   -3.1700  -29.1950   17.4210 C   0  0  1  0  0  0  0  0  0  0  0  0
   -4.9780  -25.0090   19.3530 O   0  0  0  0  0  0  0  0  0  0  0  0
   -5.6190  -24.3290   19.5210 H   0  0  0  0  0  0  0  0  0  0  0  0
   -6.5570  -25.4710   17.8390 O   0  0  0  0  0  0  0  0  0  0  0  0
   -6.9390  -25.1910   18.6630 H   0  0  0  0  0  0  0  0  0  0  0  0
   -5.9110  -27.7720   18.8940 O   0  0  0  0  0  0  0  0  0  0  0  0
   -6.7820  -27.5410   18.5920 H   0  0  0  0  0  0  0  0  0  0  0  0
   -1.6890  -27.9500   20.6390 N   0  0  0  0  0  0  0  0  0  0  0  0
   -0.6240  -26.9750   20.9520 C   0  0  0  0  0  0  0  0  0  0  0  0
   -2.4280  -28.1200   21.3200 H   0  0  0  0  0  0  0  0  0  0  0  0
   -1.8910  -30.8420   20.3580 O   0  0  0  0  0  0  0  0  0  0  0  0
   -1.6760  -30.5750   21.2440 H   0  0  0  0  0  0  0  0  0  0  0  0
   -2.7670  -31.2650   16.1900 O   0  0  0  0  0  0  0  0  0  0  0  0
   -3.4260  -31.9490   16.1740 H   0  0  0  0  0  0  0  0  0  0  0  0
   -0.9670  -32.1530   18.0450 N   0  0  0  0  0  0  0  0  0  0  0  0
    0.4260  -32.4560   18.2060 C   0  0  0  0  0  0  0  0  0  0  0  0
   -1.6640  -32.8910   17.9370 H   0  0  0  0  0  0  0  0  0  0  0  0
  1  2  1  0  0  0  0
  2  3  1  6  0  0  0
  2  4  1  0  0  0  0
  4  5  1  0  0  0  0
  5 18  1  0  0  0  0
  5  6  1  0  0  0  0
  5 16  1  0  0  0  0
  6  7  1  0  0  0  0
  6  8  1  0  0  0  0
  6 20  1  1  0  0  0
  7  1  1  6  0  0  0
  7  9  1  0  0  0  0
 10  8  1  6  0  0  0
 10 15  1  0  0  0  0
 10 11  1  0  0  0  0
 11 12  1  0  0  0  0
 11 22  1  1  0  0  0
 12 13  1  0  0  0  0
 12 25  1  1  0  0  0
 13 14  1  0  0  0  0
 13 29  1  1  0  0  0
 14 27  1  6  0  0  0
 14 15  1  0  0  0  0
 15  9  1  1  0  0  0
 16 17  1  0  0  0  0
 18 19  1  0  0  0  0
 20 21  1  0  0  0  0
 22 23  1  0  0  0  0
 22 24  1  0  0  0  0
 25 26  1  0  0  0  0
 27 28  1  0  0  0  0
 29 31  1  0  0  0  0
 29 30  1  0  0  0  0
M  END
>  <MODEL>
1

>  <REMARK>
 VINA RESULT:    -7.701      0.000      0.000
 INTER + INTRA:          -9.943
 INTER:                  -9.727
 INTRA:                  -0.216
 UNBOUND:                -0.216
  7 active torsions:
  status: ('A' for Active; 'I' for Inactive)
    1  A    between atoms: C_5  and  O_28 
    2  A    between atoms: C_5  and  O_30 
    3  A    between atoms: C_6  and  O_7 
    4  A    between atoms: C_13  and  N_14 
    5  A    between atoms: C_17  and  O_18 
    6  A    between atoms: C_20  and  N_21 
    7  A    between atoms: C_24  and  O_25 

>  <COMPND>
    /home/daniil/Downloads/ml_docking_review/databases/Vina/outputs/7UY4_SMI/7UY4_SMI.pdbqt 

>  <AUTHOR>
    GENERATED BY OPEN BABEL 3.2.1

>  <MASTER>
        0    0    0    0    0    0    0    0   31    0   31    0

$$$$
