../../databases/Vina/outputs/8BPL_CP/8BPL_CP1.pdb
 OpenBabel08242611493D

  8  7  0  0  0  0  0  0  0  0999 V2000
  -31.3390   31.7390   13.9460 O   0  0  0  0  0  0  0  0  0  0  0  0
  -31.2100   30.3650   14.0510 C   0  0  0  0  0  0  0  0  0  0  0  0
  -29.9540   29.9310   13.6310 N   0  0  0  0  0  0  0  0  0  0  0  0
  -32.0140   29.5890   14.4880 O   0  0  0  0  0  0  0  0  0  0  0  0
  -30.5610   32.6980   15.0200 P   0  0  0  0  0  0  0  0  0  0  0  0
  -29.3940   33.3120   14.2820 O   0  0  0  0  0  0  0  0  0  0  0  0
  -30.1890   31.8730   16.2580 O   0  0  0  0  0  0  0  0  0  0  0  0
  -31.6630   33.7080   15.2560 O   0  0  0  0  0  0  0  0  0  0  0  0
  1  2  1  0  0  0  0
  1  5  1  0  0  0  0
  2  3  1  0  0  0  0
  2  4  2  0  0  0  0
  5  6  2  0  0  0  0
  5  8  1  0  0  0  0
  5  7  1  0  0  0  0
M  END
>  <MODEL>
1

>  <REMARK>
 VINA RESULT:    -5.711      0.000      0.000
 INTER + INTRA:          -6.447
 INTER:                  -6.378
 INTRA:                  -0.069
 UNBOUND:                -0.069
  2 active torsions:
  status: ('A' for Active; 'I' for Inactive)
    1  A    between atoms: C_2  and  O_4 
    2  A    between atoms: O_4  and  P_5 

>  <COMPND>
    /home/daniil/Downloads/ml_docking_review/databases/Vina/outputs/8BPL_CP/8BPL_CP.pdbqt 

>  <AUTHOR>
    GENERATED BY OPEN BABEL 3.2.1

>  <MASTER>
        0    0    0    0    0    0    0    0    8    0    8    0

$$$$
