../../databases/Vina/outputs/7C6P_SQH/7C6P_SQH1.pdb
 OpenBabel08242616453D

 25 27  0  0  0  0  0  0  0  0999 V2000
    4.3910  -17.4490  -10.3440 C   0  0  0  0  0  0  0  0  0  0  0  0
    3.0500  -15.8170   -6.6170 C   0  0  0  0  0  0  0  0  0  0  0  0
    2.4040  -16.8540   -7.2920 C   0  0  0  0  0  0  0  0  0  0  0  0
    3.9580  -16.8660   -9.0710 C   0  0  0  0  0  0  0  0  0  0  0  0
    4.7350  -15.7790   -8.4490 C   0  0  0  0  0  0  0  0  0  0  0  0
    5.8890  -15.3070   -9.0930 C   0  0  0  0  0  0  0  0  0  0  0  0
    6.3100  -15.8670  -10.3170 C   0  0  0  0  0  0  0  0  0  0  0  0
    5.6140  -16.9010  -10.9570 C   0  0  0  0  0  0  0  0  0  0  0  0
    4.2090  -15.2540   -7.1530 C   0  0  0  0  0  0  0  0  0  0  0  0
    2.8480  -17.3490   -8.4790 O   0  0  0  0  0  0  0  0  0  0  0  0
    4.7850  -14.3300   -6.5420 O   0  0  0  0  0  0  0  0  0  0  0  0
    1.1740  -17.5060   -6.8020 C   0  0  0  0  0  0  0  0  0  0  0  0
    0.4490  -16.9830   -5.7370 C   0  0  0  0  0  0  0  0  0  0  0  0
   -0.6930  -17.6520   -5.3310 C   0  0  0  0  0  0  0  0  0  0  0  0
   -1.1030  -18.8920   -6.0330 C   0  0  0  0  0  0  0  0  0  0  0  0
   -0.3510  -19.3730   -7.0900 C   0  0  0  0  0  0  0  0  0  0  0  0
    0.7940  -18.6740   -7.4590 C   0  0  0  0  0  0  0  0  0  0  0  0
   -1.4330  -17.1730   -4.2960 O   0  0  0  0  0  0  0  0  0  0  0  0
   -2.1070  -17.7140   -3.9020 H   0  0  0  0  0  0  0  0  0  0  0  0
   -2.2240  -19.5500   -5.6500 O   0  0  0  0  0  0  0  0  0  0  0  0
   -2.8910  -19.0990   -5.1460 H   0  0  0  0  0  0  0  0  0  0  0  0
    3.6730  -18.4570  -10.9130 O   0  0  0  0  0  0  0  0  0  0  0  0
    3.4740  -19.2650  -10.4540 H   0  0  0  0  0  0  0  0  0  0  0  0
    6.0160  -17.4340  -12.1350 O   0  0  0  0  0  0  0  0  0  0  0  0
    5.7110  -18.3080  -12.3480 H   0  0  0  0  0  0  0  0  0  0  0  0
  1  8  2  0  0  0  0
  1 22  1  0  0  0  0
  1  4  1  0  0  0  0
  2  3  2  0  0  0  0
  2  9  1  0  0  0  0
  3 10  1  0  0  0  0
  3 12  1  0  0  0  0
  4 10  1  0  0  0  0
  4  5  2  0  0  0  0
  5  6  1  0  0  0  0
  5  9  1  0  0  0  0
  6  7  2  0  0  0  0
  7  8  1  0  0  0  0
  8 24  1  0  0  0  0
  9 11  2  0  0  0  0
 12 17  2  0  0  0  0
 12 13  1  0  0  0  0
 13 14  2  0  0  0  0
 14 15  1  0  0  0  0
 14 18  1  0  0  0  0
 15 16  2  0  0  0  0
 15 20  1  0  0  0  0
 16 17  1  0  0  0  0
 18 19  1  0  0  0  0
 20 21  1  0  0  0  0
 22 23  1  0  0  0  0
 24 25  1  0  0  0  0
M  END
>  <MODEL>
1

>  <REMARK>
 VINA RESULT:    -8.193      0.000      0.000
 INTER + INTRA:          -9.948
 INTER:                  -9.630
 INTRA:                  -0.318
 UNBOUND:                -0.318
  5 active torsions:
  status: ('A' for Active; 'I' for Inactive)
    1  A    between atoms: C_1  and  O_24 
    2  A    between atoms: C_3  and  C_4 
    3  A    between atoms: C_6  and  O_17 
    4  A    between atoms: C_7  and  O_19 
    5  A    between atoms: C_14  and  O_22 

>  <COMPND>
    /home/daniil/Downloads/ml_docking_review/databases/Vina/outputs/7C6P_SQH/7C6P_SQH.pdbqt 

>  <AUTHOR>
    GENERATED BY OPEN BABEL 3.2.1

>  <MASTER>
        0    0    0    0    0    0    0    0   25    0   25    0

$$$$
