../../databases/Vina/outputs/7E4L_MDN/7E4L_MDN1.pdb
 OpenBabel08242616453D

  9  8  0  0  0  0  0  0  0  0999 V2000
   -4.9850    5.2060   -5.0440 C   0  0  0  0  0  0  0  0  0  0  0  0
   -3.6060    6.2870   -5.5080 P   0  0  0  0  0  0  0  0  0  0  0  0
   -2.5740    6.2500   -4.4040 O   0  0  0  0  0  0  0  0  0  0  0  0
   -4.2810    7.6610   -5.6190 O   0  0  0  0  0  0  0  0  0  0  0  0
   -3.0480    5.8360   -6.8360 O   0  0  0  0  0  0  0  0  0  0  0  0
   -4.6540    3.4750   -4.5850 P   0  0  0  0  0  0  0  0  0  0  0  0
   -4.4830    3.4210   -3.1040 O   0  0  0  0  0  0  0  0  0  0  0  0
   -5.8990    2.7570   -5.0260 O   0  0  0  0  0  0  0  0  0  0  0  0
   -3.4520    2.9780   -5.3100 O   0  0  0  0  0  0  0  0  0  0  0  0
  1  2  1  0  0  0  0
  1  6  1  0  0  0  0
  2  5  2  0  0  0  0
  2  4  1  0  0  0  0
  2  3  1  0  0  0  0
  6  9  2  0  0  0  0
  6  8  1  0  0  0  0
  6  7  1  0  0  0  0
M  END
>  <MODEL>
1

>  <REMARK>
 VINA RESULT:    -5.471      0.000      0.000
 INTER + INTRA:          -6.209
 INTER:                  -6.111
 INTRA:                  -0.099
 UNBOUND:                -0.099
  2 active torsions:
  status: ('A' for Active; 'I' for Inactive)
    1  A    between atoms: P_2  and  C_5 
    2  A    between atoms: C_5  and  P_6 

>  <COMPND>
    /home/daniil/Downloads/ml_docking_review/databases/Vina/outputs/7E4L_MDN/7E4L_MDN.pdbqt 

>  <AUTHOR>
    GENERATED BY OPEN BABEL 3.2.1

>  <MASTER>
        0    0    0    0    0    0    0    0    9    0    9    0

$$$$
