../../databases/Vina/outputs/6ZAE_ACV/6ZAE_ACV1.pdb
 OpenBabel08242616453D

 20 19  0  0  1  0  0  0  0  0999 V2000
   52.5310   81.4090   10.4530 C   0  0  0  0  0  0  0  0  0  0  0  0
   52.1250   80.0160   10.9200 C   0  0  0  0  0  0  0  0  0  0  0  0
   51.2080   80.0440   12.1460 C   0  0  1  0  0  0  0  0  0  0  0  0
   51.3550   78.7490   12.9350 C   0  0  0  0  0  0  0  0  0  0  0  0
   51.9460   77.7940   12.4730 O   0  0  0  0  0  0  0  0  0  0  0  0
   50.7940   78.7640   14.1090 O   0  0  0  0  0  0  0  0  0  0  0  0
   51.4990   81.1910   13.0270 N   0  0  0  0  0  4  0  0  0  0  0  0
   51.6420   82.0540   12.5020 H   0  0  0  0  0  0  0  0  0  0  0  0
   50.6820   81.4810   13.5650 H   0  0  0  0  0  0  0  0  0  0  0  0
   52.2950   80.9670   13.6250 H   0  0  0  0  0  0  0  0  0  0  0  0
   52.8110   81.4910    8.9590 C   0  0  0  0  0  0  0  0  0  0  0  0
   51.8220   82.3780    8.2450 C   0  0  0  0  0  0  0  0  0  0  0  0
   51.1910   83.2600    8.8320 O   0  0  0  0  0  0  0  0  0  0  0  0
   51.6980   82.1550    6.9360 N   0  0  0  0  0  0  0  0  0  0  0  0
   52.1890   81.3570    6.5320 H   0  0  0  0  0  0  0  0  0  0  0  0
   50.8990   82.9910    6.0600 C   0  0  2  0  0  0  0  0  0  0  0  0
   49.5310   82.3420    5.8560 C   0  0  0  0  0  0  0  0  0  0  0  0
   48.5190   82.8520    6.3290 O   0  0  0  0  0  0  0  0  0  0  0  0
   51.5730   83.1230    4.7040 C   0  0  0  0  0  0  0  0  0  0  0  0
   51.0600   81.8600    3.5120 S   0  0  0  0  0  0  0  0  0  0  0  0
  1 11  1  0  0  0  0
  1  2  1  0  0  0  0
  3  2  1  6  0  0  0
  3  4  1  0  0  0  0
  3  7  1  0  0  0  0
  4  5  2  0  0  0  0
  4  6  1  0  0  0  0
  7  8  1  0  0  0  0
  7  9  1  0  0  0  0
  7 10  1  0  0  0  0
 11 12  1  0  0  0  0
 12 14  1  0  0  0  0
 12 13  2  0  0  0  0
 14 16  1  0  0  0  0
 14 15  1  0  0  0  0
 16 19  1  6  0  0  0
 16 17  1  0  0  0  0
 17 18  2  0  0  0  0
 19 20  1  0  0  0  0
M  END
>  <MODEL>
1

>  <REMARK>
 VINA RESULT:    -5.780      0.000      0.000
 INTER + INTRA:          -8.995
 INTER:                  -8.653
 INTRA:                  -0.342
 UNBOUND:                -0.342
  9 active torsions:
  status: ('A' for Active; 'I' for Inactive)
    1  A    between atoms: C_1  and  C_2 
    2  A    between atoms: C_2  and  C_3 
    3  A    between atoms: C_2  and  N_11 
    4  A    between atoms: C_3  and  C_4 
    5  A    between atoms: C_4  and  C_5 
    6  A    between atoms: C_5  and  C_6 
       I    between atoms: C_6  and  N_7 
    7  A    between atoms: N_7  and  C_9 
    8  A    between atoms: C_9  and  C_10 
    9  A    between atoms: C_9  and  C_16 

>  <COMPND>
    /home/daniil/Downloads/ml_docking_review/databases/Vina/outputs/6ZAE_ACV/6ZAE_ACV.pdbqt 

>  <AUTHOR>
    GENERATED BY OPEN BABEL 3.2.1

>  <MASTER>
        0    0    0    0    0    0    0    0   20    0   20    0

$$$$
