../../databases/Vina/outputs/7XRL_FWK/7XRL_FWK1.pdb
 OpenBabel08242616453D

 26 28  0  0  1  0  0  0  0  0999 V2000
    8.2560    1.2410   43.5180 N   0  0  1  0  0  0  0  0  0  0  0  0
    7.4070    2.0180   44.2250 C   0  0  0  0  0  0  0  0  0  0  0  0
    7.6020    1.8720   45.5580 N   0  0  0  0  0  0  0  0  0  0  0  0
    7.0980    2.3570   46.3000 H   0  0  0  0  0  0  0  0  0  0  0  0
    8.5800    0.9710   45.7190 C   0  0  0  0  0  0  0  0  0  0  0  0
    9.0090    0.5420   44.3710 C   0  0  2  0  0  0  0  0  0  0  0  0
   10.0080   -0.3710   44.2680 N   0  0  0  0  0  0  0  0  0  0  0  0
   10.3210   -0.6740   43.3450 H   0  0  0  0  0  0  0  0  0  0  0  0
   10.5900   -0.8830   45.3670 C   0  0  0  0  0  0  0  0  0  0  0  0
   10.2500   -0.5210   46.6120 N   0  0  0  0  0  0  0  0  0  0  0  0
   10.7480   -0.9420   47.3960 H   0  0  0  0  0  0  0  0  0  0  0  0
    9.2750    0.3770   46.8730 C   0  0  0  0  0  0  0  0  0  0  0  0
    8.9380    0.7190   48.1480 N   0  0  0  0  0  0  0  0  0  0  0  0
    8.2020    1.3980   48.3450 H   0  0  0  0  0  0  0  0  0  0  0  0
    9.4200    0.3070   48.9470 H   0  0  0  0  0  0  0  0  0  0  0  0
    8.2200    1.1530   42.0390 C   0  0  1  0  0  0  0  0  0  0  0  0
    7.7710    2.4240   41.3310 C   0  0  1  0  0  0  0  0  0  0  0  0
    9.0380    3.0850   40.8210 C   0  0  1  0  0  0  0  0  0  0  0  0
    9.9560    1.9000   40.6400 C   0  0  2  0  0  0  0  0  0  0  0  0
    9.5950    0.9780   41.6760 O   0  0  0  0  0  0  0  0  0  0  0  0
    6.9790    2.0120   40.2220 O   0  0  0  0  0  0  0  0  0  0  0  0
    6.7840    2.7970   39.7230 H   0  0  0  0  0  0  0  0  0  0  0  0
    8.8340    3.7720   39.5740 O   0  0  0  0  0  0  0  0  0  0  0  0
    8.3860    4.6020   39.6880 H   0  0  0  0  0  0  0  0  0  0  0  0
   11.4270    2.2390   40.7790 C   0  0  0  0  0  0  0  0  0  0  0  0
   11.7130    2.3160   42.2660 C   0  0  0  0  0  0  0  0  0  0  0  0
  1 16  1  0  0  0  0
  1  2  1  1  0  0  0
  1  6  1  0  0  0  0
  2  3  1  0  0  0  0
  3  5  1  0  0  0  0
  3  4  1  0  0  0  0
  5 12  2  0  0  0  0
  6  5  1  1  0  0  0
  6  7  1  0  0  0  0
  7  8  1  0  0  0  0
  7  9  1  0  0  0  0
  9 10  1  0  0  0  0
 10 12  1  0  0  0  0
 10 11  1  0  0  0  0
 12 13  1  0  0  0  0
 13 14  1  0  0  0  0
 13 15  1  0  0  0  0
 16 17  1  0  0  0  0
 16 20  1  6  0  0  0
 17 21  1  6  0  0  0
 17 18  1  0  0  0  0
 18 23  1  6  0  0  0
 18 19  1  0  0  0  0
 19 25  1  1  0  0  0
 19 20  1  0  0  0  0
 21 22  1  0  0  0  0
 23 24  1  0  0  0  0
 25 26  1  0  0  0  0
M  END
>  <MODEL>
1

>  <REMARK>
 VINA RESULT:    -8.202      0.000      0.000
 INTER + INTRA:         -10.376
 INTER:                  -9.641
 INTRA:                  -0.735
 UNBOUND:                -0.735
  4 active torsions:
  status: ('A' for Active; 'I' for Inactive)
    1  A    between atoms: C_1  and  C_2 
    2  A    between atoms: C_4  and  O_5 
    3  A    between atoms: C_7  and  O_8 
    4  A    between atoms: C_10  and  N_11 

>  <COMPND>
    /home/daniil/Downloads/ml_docking_review/databases/Vina/outputs/7XRL_FWK/7XRL_FWK.pdbqt 

>  <AUTHOR>
    GENERATED BY OPEN BABEL 3.2.1

>  <MASTER>
        0    0    0    0    0    0    0    0   26    0   26    0

$$$$
