../../databases/Vina/outputs/8BOM_QU6/8BOM_QU61.pdb
 OpenBabel08242616453D

 41 45  0  0  1  0  0  0  0  0999 V2000
  -82.6380  -20.3660   85.1370 N   0  0  0  0  0  0  0  0  0  0  0  0
  -82.9530  -20.6280   84.2030 H   0  0  0  0  0  0  0  0  0  0  0  0
  -83.6000  -20.6080   86.0750 C   0  0  0  0  0  0  0  0  0  0  0  0
  -84.0780  -19.5810   86.8840 C   0  0  0  0  0  0  0  0  0  0  0  0
  -84.9540  -19.8280   87.9330 C   0  0  0  0  0  0  0  0  0  0  0  0
  -85.2670  -21.1430   88.2460 C   0  0  0  0  0  0  0  0  0  0  0  0
  -84.7450  -22.1800   87.4920 C   0  0  0  0  0  0  0  0  0  0  0  0
  -83.9330  -21.9440   86.3810 C   0  0  0  0  0  0  0  0  0  0  0  0
  -83.4100  -23.0920   85.5500 C   0  0  0  0  0  0  0  0  0  0  0  0
  -85.5440  -18.5860   88.5180 C   0  0  0  0  0  0  0  0  0  0  0  0
  -86.4470  -18.7320   89.5060 N   0  0  0  0  0  0  0  0  0  0  0  0
  -86.5250  -19.6610   89.9210 H   0  0  0  0  0  0  0  0  0  0  0  0
  -85.1730  -17.4840   88.1270 O   0  0  0  0  0  0  0  0  0  0  0  0
  -87.3000  -17.7310   90.0300 C   0  0  0  0  0  0  0  0  0  0  0  0
  -87.8860  -17.8910   91.2740 C   0  0  0  0  0  0  0  0  0  0  0  0
  -88.6650  -16.8770   91.8040 C   0  0  0  0  0  0  0  0  0  0  0  0
  -88.9380  -15.7390   91.0650 C   0  0  0  0  0  0  0  0  0  0  0  0
  -88.4440  -15.6310   89.7720 C   0  0  0  0  0  0  0  0  0  0  0  0
  -87.6240  -16.6220   89.2500 C   0  0  0  0  0  0  0  0  0  0  0  0
  -88.7000  -14.5600   88.9420 O   0  0  0  0  0  0  0  0  0  0  0  0
  -88.8300  -13.2690   89.5600 C   0  0  0  0  0  0  0  0  0  0  0  0
  -81.3720  -19.8700   85.1150 C   0  0  1  0  0  0  0  0  0  0  0  0
  -80.6250  -20.1460   86.1900 N   0  0  0  0  0  0  0  0  0  0  0  0
  -79.2960  -19.9310   86.1200 C   0  0  2  0  0  0  0  0  0  0  0  0
  -81.0510  -20.5090   87.0420 H   0  0  0  0  0  0  0  0  0  0  0  0
  -78.6390  -19.3920   85.0800 N   0  0  0  0  0  0  0  0  0  0  0  0
  -79.4070  -19.1120   84.0230 C   0  0  1  0  0  0  0  0  0  0  0  0
  -77.6340  -19.2120   85.0960 H   0  0  0  0  0  0  0  0  0  0  0  0
  -80.7820  -19.3390   83.9250 C   0  0  0  0  0  0  0  0  0  0  0  0
  -79.0180  -18.5300   82.8650 N   0  0  0  0  0  0  0  0  0  0  0  0
  -81.1260  -18.8580   82.6410 C   0  0  0  0  0  0  0  0  0  0  0  0
  -80.0740  -18.3690   82.0140 N   0  0  0  0  0  0  0  0  0  0  0  0
  -80.0540  -17.9530   81.0830 H   0  0  0  0  0  0  0  0  0  0  0  0
  -77.6800  -18.1010   82.4810 C   0  0  0  0  0  0  0  0  0  0  0  0
  -78.5000  -20.3740   87.2840 C   0  0  0  0  0  0  0  0  0  0  0  0
  -77.1080  -20.4050   87.2600 C   0  0  0  0  0  0  0  0  0  0  0  0
  -76.3470  -20.7880   88.2920 N   0  0  0  0  0  0  0  0  0  0  0  0
  -76.9720  -21.1620   89.4120 C   0  0  0  0  0  0  0  0  0  0  0  0
  -75.3290  -20.7950   88.2260 H   0  0  0  0  0  0  0  0  0  0  0  0
  -78.3460  -21.1680   89.5460 C   0  0  0  0  0  0  0  0  0  0  0  0
  -79.1130  -20.7690   88.4680 C   0  0  0  0  0  0  0  0  0  0  0  0
  1  2  1  0  0  0  0
  1  3  1  0  0  0  0
  3  8  2  0  0  0  0
  3  4  1  0  0  0  0
  4  5  2  0  0  0  0
  5  6  1  0  0  0  0
  5 10  1  0  0  0  0
  6  7  2  0  0  0  0
  7  8  1  0  0  0  0
  8  9  1  0  0  0  0
 10 13  2  0  0  0  0
 10 11  1  0  0  0  0
 11 12  1  0  0  0  0
 11 14  1  0  0  0  0
 14 19  2  0  0  0  0
 14 15  1  0  0  0  0
 15 16  2  0  0  0  0
 16 17  1  0  0  0  0
 17 18  2  0  0  0  0
 18 20  1  0  0  0  0
 18 19  1  0  0  0  0
 20 21  1  0  0  0  0
 22  1  1  6  0  0  0
 22 29  1  0  0  0  0
 22 23  1  0  0  0  0
 23 24  1  0  0  0  0
 23 25  1  0  0  0  0
 24 26  1  0  0  0  0
 24 35  1  6  0  0  0
 26 27  1  0  0  0  0
 26 28  1  0  0  0  0
 27 30  1  0  0  0  0
 27 29  1  1  0  0  0
 29 31  2  0  0  0  0
 30 32  1  0  0  0  0
 30 34  1  0  0  0  0
 31 32  1  0  0  0  0
 32 33  1  0  0  0  0
 35 36  1  0  0  0  0
 35 41  2  0  0  0  0
 36 37  1  0  0  0  0
 37 39  1  0  0  0  0
 37 38  1  0  0  0  0
 38 40  2  0  0  0  0
 40 41  1  0  0  0  0
M  END
>  <MODEL>
1

>  <REMARK>
 VINA RESULT:   -13.320      0.000      0.000
 INTER + INTRA:         -18.766
 INTER:                 -17.992
 INTRA:                  -0.775
 UNBOUND:                -0.775
  6 active torsions:
  status: ('A' for Active; 'I' for Inactive)
    1  A    between atoms: N_1  and  C_25 
    2  A    between atoms: N_1  and  C_12 
    3  A    between atoms: C_5  and  C_6 
       I    between atoms: C_6  and  N_18 
    4  A    between atoms: C_7  and  N_18 
    5  A    between atoms: C_9  and  O_21 
    6  A    between atoms: C_13  and  C_26 

>  <COMPND>
    /home/daniil/Downloads/ml_docking_review/databases/Vina/outputs/8BOM_QU6/8BOM_QU6.pdbqt 

>  <AUTHOR>
    GENERATED BY OPEN BABEL 3.2.1

>  <MASTER>
        0    0    0    0    0    0    0    0   41    0   41    0

$$$$
