../../databases/Vina/outputs/7XBV_APC/7XBV_APC1.pdb
 OpenBabel08242616453D

 38 40  0  0  1  0  0  0  0  0999 V2000
  -39.8240   10.7390   -1.0140 C   0  0  1  0  0  0  0  0  0  0  0  0
  -40.6920   10.0040   -0.1110 O   0  0  0  0  0  0  0  0  0  0  0  0
  -38.6040   11.1100   -0.1660 C   0  0  2  0  0  0  0  0  0  0  0  0
  -39.2490   11.3590    1.1950 C   0  0  2  0  0  0  0  0  0  0  0  0
  -40.3050   10.2560    1.2280 C   0  0  2  0  0  0  0  0  0  0  0  0
  -39.8440    9.0100    1.8330 N   0  0  1  0  0  0  0  0  0  0  0  0
  -40.3380    8.4380    2.9790 C   0  0  2  0  0  0  0  0  0  0  0  0
  -41.2900    8.9330    3.7860 N   0  0  0  0  0  0  0  0  0  0  0  0
  -39.6500    7.2510    3.1450 C   0  0  0  0  0  0  0  0  0  0  0  0
  -41.5100    8.1220    4.8150 C   0  0  0  0  0  0  0  0  0  0  0  0
  -41.7780    9.8150    3.6310 H   0  0  0  0  0  0  0  0  0  0  0  0
  -40.9310    6.9510    5.1090 N   0  0  0  0  0  0  0  0  0  0  0  0
  -39.9730    6.4740    4.2760 C   0  0  0  0  0  0  0  0  0  0  0  0
  -41.2060    6.4290    5.9420 H   0  0  0  0  0  0  0  0  0  0  0  0
  -38.7400    7.0730    2.1120 N   0  0  0  0  0  0  0  0  0  0  0  0
  -38.8900    8.1360    1.3600 C   0  0  0  0  0  0  0  0  0  0  0  0
  -38.1000    6.2920    1.9700 H   0  0  0  0  0  0  0  0  0  0  0  0
  -39.4010    5.3120    4.5730 N   0  0  0  0  0  0  0  0  0  0  0  0
  -38.7300    4.8320    3.9730 H   0  0  0  0  0  0  0  0  0  0  0  0
  -39.6450    4.8650    5.4570 H   0  0  0  0  0  0  0  0  0  0  0  0
  -39.8280   12.6440    1.2470 O   0  0  0  0  0  0  0  0  0  0  0  0
  -40.5390   12.7380    0.6240 H   0  0  0  0  0  0  0  0  0  0  0  0
  -39.4820    9.8950   -2.2130 C   0  0  0  0  0  0  0  0  0  0  0  0
  -38.6770   10.6410   -3.1330 O   0  0  0  0  0  0  0  0  0  0  0  0
  -39.3080   11.1440   -4.4970 P   0  0  2  0  0  0  0  0  0  0  0  0
  -40.4900   10.2860   -4.8470 O   0  0  0  0  0  0  0  0  0  0  0  0
  -38.2140   11.2610   -5.5170 O   0  0  0  0  0  0  0  0  0  0  0  0
  -39.9210   12.8030   -4.0930 C   0  0  0  0  0  0  0  0  0  0  0  0
  -38.5910   13.9290   -3.6140 P   0  0  2  0  0  0  0  0  0  0  0  0
  -38.5500   15.0920   -4.5640 O   0  0  0  0  0  0  0  0  0  0  0  0
  -37.3430   13.0980   -3.4920 O   0  0  0  0  0  0  0  0  0  0  0  0
  -39.0840   14.4860   -2.1920 O   0  0  0  0  0  0  0  0  0  0  0  0
  -38.4300   15.6170   -1.2390 P   0  0  0  0  0  0  0  0  0  0  0  0
  -37.1060   15.9910   -1.8380 O   0  0  0  0  0  0  0  0  0  0  0  0
  -39.3630   16.8080   -1.1690 O   0  0  0  0  0  0  0  0  0  0  0  0
  -38.2920   14.9240    0.0960 O   0  0  0  0  0  0  0  0  0  0  0  0
  -37.9770   12.2500   -0.7350 O   0  0  0  0  0  0  0  0  0  0  0  0
  -37.6310   12.8660   -0.0990 H   0  0  0  0  0  0  0  0  0  0  0  0
  1 23  1  6  0  0  0
  1  3  1  0  0  0  0
  1  2  1  0  0  0  0
  3 37  1  6  0  0  0
  3  4  1  0  0  0  0
  4  5  1  0  0  0  0
  4 21  1  6  0  0  0
  5  2  1  6  0  0  0
  5  6  1  0  0  0  0
  6 16  1  6  0  0  0
  6  7  1  0  0  0  0
  7  9  1  1  0  0  0
  7  8  1  0  0  0  0
  8 11  1  0  0  0  0
  8 10  1  0  0  0  0
  9 15  1  0  0  0  0
  9 13  2  0  0  0  0
 10 12  1  0  0  0  0
 12 13  1  0  0  0  0
 12 14  1  0  0  0  0
 13 18  1  0  0  0  0
 15 16  1  0  0  0  0
 15 17  1  0  0  0  0
 18 19  1  0  0  0  0
 18 20  1  0  0  0  0
 21 22  1  0  0  0  0
 23 24  1  0  0  0  0
 24 25  1  0  0  0  0
 25 27  2  6  0  0  0
 25 26  1  0  0  0  0
 25 28  1  0  0  0  0
 28 29  1  0  0  0  0
 29 30  2  6  0  0  0
 29 31  1  0  0  0  0
 29 32  1  0  0  0  0
 32 33  1  0  0  0  0
 33 34  2  0  0  0  0
 33 35  1  0  0  0  0
 33 36  1  0  0  0  0
 37 38  1  0  0  0  0
M  END
>  <MODEL>
1

>  <REMARK>
 VINA RESULT:    -8.469      0.000      0.000
 INTER + INTRA:         -14.648
 INTER:                 -13.173
 INTRA:                  -1.475
 UNBOUND:                -1.475
  11 active torsions:
  status: ('A' for Active; 'I' for Inactive)
    1  A    between atoms: P_1  and  O_8 
    2  A    between atoms: P_5  and  O_8 
    3  A    between atoms: P_5  and  C_12 
    4  A    between atoms: P_9  and  C_12 
    5  A    between atoms: P_9  and  O_13 
    6  A    between atoms: O_13  and  C_14 
    7  A    between atoms: C_14  and  C_15 
    8  A    between atoms: C_17  and  O_18 
    9  A    between atoms: C_20  and  O_21 
   10  A    between atoms: C_23  and  N_24 
   11  A    between atoms: C_29  and  N_30 

>  <COMPND>
    /home/daniil/Downloads/ml_docking_review/databases/Vina/outputs/7XBV_APC/7XBV_APC.pdbqt 

>  <AUTHOR>
    GENERATED BY OPEN BABEL 3.2.1

>  <MASTER>
        0    0    0    0    0    0    0    0   38    0   38    0

$$$$
