../../databases/Vina/outputs/7MGT_ZD4/7MGT_ZD41.pdb
 OpenBabel08242611493D

 33 35  0  0  1  0  0  0  0  0999 V2000
   38.6690   36.1590   21.6920 C   0  0  1  0  0  0  0  0  0  0  0  0
   39.9770   35.5810   22.0980 C   0  0  1  0  0  0  0  0  0  0  0  0
   40.6000   35.0130   20.8890 C   0  0  1  0  0  0  0  0  0  0  0  0
   40.2000   35.9740   19.8030 C   0  0  2  0  0  0  0  0  0  0  0  0
   38.9880   36.6830   20.3200 O   0  0  0  0  0  0  0  0  0  0  0  0
   37.5670   35.2950   21.4950 N   0  0  2  0  0  0  0  0  0  0  0  0
   37.5680   34.0160   21.8170 C   0  0  0  0  0  0  0  0  0  0  0  0
   36.3850   33.4840   21.4620 N   0  0  0  0  0  0  0  0  0  0  0  0
   35.6170   34.5450   20.8330 C   0  0  0  0  0  0  0  0  0  0  0  0
   36.0840   32.5200   21.6060 H   0  0  0  0  0  0  0  0  0  0  0  0
   36.4560   35.7110   20.8930 C   0  0  1  0  0  0  0  0  0  0  0  0
   34.3600   34.6930   20.2480 C   0  0  0  0  0  0  0  0  0  0  0  0
   35.9890   36.8330   20.4000 N   0  0  0  0  0  0  0  0  0  0  0  0
   34.8210   36.8900   19.8500 C   0  0  2  0  0  0  0  0  0  0  0  0
   36.5600   37.6780   20.4510 H   0  0  0  0  0  0  0  0  0  0  0  0
   34.3510   38.4720   19.2260 Cl  0  0  0  0  0  0  0  0  0  0  0  0
   34.0000   35.8700   19.7650 N   0  0  0  0  0  0  0  0  0  0  0  0
   33.0860   35.9850   19.3280 H   0  0  0  0  0  0  0  0  0  0  0  0
   33.4850   33.5520   20.1450 N   0  0  0  0  0  0  0  0  0  0  0  0
   40.8400   36.6500   22.5570 O   0  0  0  0  0  0  0  0  0  0  0  0
   41.7250   36.4820   22.2560 H   0  0  0  0  0  0  0  0  0  0  0  0
   42.0240   34.9480   21.0060 O   0  0  0  0  0  0  0  0  0  0  0  0
   42.4580   35.3590   20.2670 H   0  0  0  0  0  0  0  0  0  0  0  0
   39.9300   35.3240   18.4880 C   0  0  0  0  0  0  0  0  0  0  0  0
   41.1580   34.8310   17.9980 O   0  0  0  0  0  0  0  0  0  0  0  0
   41.7200   35.4420   16.5960 P   0  0  1  0  0  0  0  0  0  0  0  0
   40.6280   35.8460   15.7000 O   0  0  0  0  0  0  0  0  0  0  0  0
   42.6030   36.5710   16.9330 O   0  0  0  0  0  0  0  0  0  0  0  0
   42.4970   34.2410   15.8350 O   0  0  0  0  0  0  0  0  0  0  0  0
   41.9000   33.1660   14.7750 P   0  0  0  0  0  0  0  0  0  0  0  0
   42.9830   32.2800   14.3310 O   0  0  0  0  0  0  0  0  0  0  0  0
   41.3180   33.7930   13.5820 O   0  0  0  0  0  0  0  0  0  0  0  0
   40.9220   32.3480   15.4900 O   0  0  0  0  0  0  0  0  0  0  0  0
  1  5  1  6  0  0  0
  1  6  1  0  0  0  0
  1  2  1  0  0  0  0
  2  3  1  0  0  0  0
  2 20  1  6  0  0  0
  3  4  1  0  0  0  0
  3 22  1  1  0  0  0
  4 24  1  6  0  0  0
  4  5  1  0  0  0  0
  6 11  1  0  0  0  0
  6  7  1  6  0  0  0
  7  8  1  0  0  0  0
  8  9  1  0  0  0  0
  8 10  1  0  0  0  0
  9 12  2  0  0  0  0
 11  9  1  1  0  0  0
 11 13  1  0  0  0  0
 12 17  1  0  0  0  0
 12 19  1  0  0  0  0
 13 14  1  0  0  0  0
 13 15  1  0  0  0  0
 14 16  1  1  0  0  0
 14 17  1  0  0  0  0
 17 18  1  0  0  0  0
 20 21  1  0  0  0  0
 22 23  1  0  0  0  0
 24 25  1  0  0  0  0
 25 26  1  0  0  0  0
 26 27  2  6  0  0  0
 26 29  1  0  0  0  0
 26 28  1  0  0  0  0
 29 30  1  0  0  0  0
 30 32  2  0  0  0  0
 30 31  1  0  0  0  0
 30 33  1  0  0  0  0
M  END
>  <MODEL>
1

>  <REMARK>
 VINA RESULT:    -9.297      0.000      0.000
 INTER + INTRA:         -14.148
 INTER:                 -13.101
 INTRA:                  -1.046
 UNBOUND:                -1.046
  8 active torsions:
  status: ('A' for Active; 'I' for Inactive)
    1  A    between atoms: C_1  and  N_18 
    2  A    between atoms: C_3  and  O_21 
    3  A    between atoms: C_4  and  O_25 
    4  A    between atoms: C_6  and  C_8 
    5  A    between atoms: C_8  and  O_30 
    6  A    between atoms: O_27  and  P_31 
    7  A    between atoms: O_27  and  P_32 
    8  A    between atoms: O_30  and  P_31 

>  <COMPND>
    /home/daniil/Downloads/ml_docking_review/databases/Vina/outputs/7MGT_ZD4/7MGT_ZD4.pdbqt 

>  <AUTHOR>
    GENERATED BY OPEN BABEL 3.2.1

>  <MASTER>
        0    0    0    0    0    0    0    0   33    0   33    0

$$$$
