../../databases/Vina/outputs/8C5D_GTB/8C5D_GTB1.pdb
 OpenBabel08242616453D

 29 29  0  0  1  0  0  0  0  0999 V2000
  -31.0370  -13.6260   21.1500 C   0  0  1  0  0  0  0  0  0  0  0  0
  -32.1830  -14.4750   21.7210 C   0  0  0  0  0  0  0  0  0  0  0  0
  -33.3970  -13.4760   22.6050 S   0  0  0  0  0  0  0  0  0  0  0  0
  -32.7670  -13.2910   24.3060 C   0  0  0  0  0  0  0  0  0  0  0  0
  -32.3710  -14.6520   24.8830 C   0  0  0  0  0  0  0  0  0  0  0  0
  -33.3040  -15.6720   24.9450 C   0  0  0  0  0  0  0  0  0  0  0  0
  -32.9650  -16.9100   25.4660 C   0  0  0  0  0  0  0  0  0  0  0  0
  -31.6860  -17.1240   25.9190 C   0  0  0  0  0  0  0  0  0  0  0  0
  -30.7410  -16.1070   25.8620 C   0  0  0  0  0  0  0  0  0  0  0  0
  -31.0830  -14.8730   25.3430 C   0  0  0  0  0  0  0  0  0  0  0  0
  -31.3470  -18.4250   26.4450 N   0  0  0  0  0  0  0  0  0  0  0  0
  -30.2320  -18.8000   26.5070 O   0  0  0  0  0  0  0  0  0  0  0  0
  -32.3680  -19.2050   26.9500 O   0  0  0  0  0  0  0  0  0  0  0  0
  -30.1460  -14.6400   20.4750 C   0  0  0  0  0  0  0  0  0  0  0  0
  -28.9870  -14.7370   20.7520 O   0  0  0  0  0  0  0  0  0  0  0  0
  -31.6040  -12.7360   20.2030 N   0  0  0  0  0  0  0  0  0  0  0  0
  -31.3750  -11.3260   20.2600 C   0  0  0  0  0  0  0  0  0  0  0  0
  -30.6760  -10.8220   21.0930 O   0  0  0  0  0  0  0  0  0  0  0  0
  -32.1920  -13.1120   19.4600 H   0  0  0  0  0  0  0  0  0  0  0  0
  -32.1070  -10.5880   19.1430 C   0  0  0  0  0  0  0  0  0  0  0  0
  -32.2980  -11.4860   17.9380 C   0  0  0  0  0  0  0  0  0  0  0  0
  -32.8570  -10.6760   16.7690 C   0  0  1  0  0  0  0  0  0  0  0  0
  -34.3710  -10.5940   16.9110 C   0  0  0  0  0  0  0  0  0  0  0  0
  -34.9240   -9.4670   17.1180 O   0  0  0  0  0  0  0  0  0  0  0  0
  -35.0430  -11.6560   16.8290 O   0  0  0  0  0  0  0  0  0  0  0  0
  -32.2620   -9.3490   16.7980 N   0  0  0  0  0  4  0  0  0  0  0  0
  -31.2850   -9.3660   17.0890 H   0  0  0  0  0  0  0  0  0  0  0  0
  -32.1240   -8.9620   15.8650 H   0  0  0  0  0  0  0  0  0  0  0  0
  -32.8350   -8.7480   17.3900 H   0  0  0  0  0  0  0  0  0  0  0  0
  1 16  1  0  0  0  0
  1 14  1  6  0  0  0
  1  2  1  0  0  0  0
  2  3  1  0  0  0  0
  3  4  1  0  0  0  0
  4  5  1  0  0  0  0
  5  6  2  0  0  0  0
  5 10  1  0  0  0  0
  6  7  1  0  0  0  0
  7  8  2  0  0  0  0
  8  9  1  0  0  0  0
  8 11  1  0  0  0  0
  9 10  2  0  0  0  0
 11 12  2  0  0  0  0
 11 13  2  0  0  0  0
 14 15  2  0  0  0  0
 16 19  1  0  0  0  0
 16 17  1  0  0  0  0
 17 20  1  0  0  0  0
 17 18  2  0  0  0  0
 20 21  1  0  0  0  0
 22 21  1  1  0  0  0
 22 26  1  0  0  0  0
 22 23  1  0  0  0  0
 23 25  2  0  0  0  0
 23 24  1  0  0  0  0
 26 28  1  0  0  0  0
 26 27  1  0  0  0  0
 26 29  1  0  0  0  0
M  END
>  <MODEL>
1

>  <REMARK>
 VINA RESULT:    -7.152      0.000      0.000
 INTER + INTRA:         -12.754
 INTER:                 -11.961
 INTRA:                  -0.794
 UNBOUND:                -0.794
  12 active torsions:
  status: ('A' for Active; 'I' for Inactive)
    1  A    between atoms: N_1  and  C_5 
    2  A    between atoms: C_5  and  C_9 
    3  A    between atoms: C_5  and  C_6 
    4  A    between atoms: C_9  and  C_10 
    5  A    between atoms: C_10  and  C_11 
       I    between atoms: C_11  and  N_13 
    6  A    between atoms: N_13  and  C_15 
    7  A    between atoms: C_15  and  C_18 
    8  A    between atoms: C_15  and  C_16 
    9  A    between atoms: C_18  and  S_19 
   10  A    between atoms: S_19  and  C_20 
   11  A    between atoms: C_20  and  C_21 
   12  A    between atoms: C_24  and  N_25 

>  <COMPND>
    /home/daniil/Downloads/ml_docking_review/databases/Vina/outputs/8C5D_GTB/8C5D_GTB.pdbqt 

>  <AUTHOR>
    GENERATED BY OPEN BABEL 3.2.1

>  <MASTER>
        0    0    0    0    0    0    0    0   29    0   29    0

$$$$
