../../databases/Vina/outputs/7SED_8VD/7SED_8VD1.pdb
 OpenBabel08242616453D

 22 23  0  0  1  0  0  0  0  0999 V2000
   22.5910   33.2390    9.2420 C   0  0  2  0  0  0  0  0  0  0  0  0
   22.2010   35.4180    8.3990 C   0  0  0  0  0  0  0  0  0  0  0  0
   21.8760   34.4320    9.3390 C   0  0  0  0  0  0  0  0  0  0  0  0
   23.7410   34.0940    7.4780 C   0  0  0  0  0  0  0  0  0  0  0  0
   23.5420   33.0740    8.3130 N   0  0  0  0  0  0  0  0  0  0  0  0
   24.0850   32.2130    8.2480 H   0  0  0  0  0  0  0  0  0  0  0  0
   23.1150   35.2740    7.4330 N   0  0  0  0  0  0  0  0  0  0  0  0
   23.3130   35.9900    6.7350 H   0  0  0  0  0  0  0  0  0  0  0  0
   22.3200   32.1410   10.0100 N   0  0  0  0  0  0  0  0  0  0  0  0
   23.0640   31.8400   10.6390 H   0  0  0  0  0  0  0  0  0  0  0  0
   21.0900   31.3450   10.0350 C   0  0  0  0  0  0  0  0  0  0  0  0
   21.4220   29.8610   10.0250 C   0  0  0  0  0  0  0  0  0  0  0  0
   20.1510   29.0260   10.0500 C   0  0  0  0  0  0  0  0  0  0  0  0
   19.3020   29.3800   11.2090 N   0  0  0  0  0  4  0  0  0  0  0  0
   18.9610   30.8180   11.2230 C   0  0  0  0  0  0  0  0  0  0  0  0
   18.4640   28.8000   11.2460 H   0  0  0  0  0  0  0  0  0  0  0  0
   19.7350   29.0930   12.0870 H   0  0  0  0  0  0  0  0  0  0  0  0
   20.2200   31.6750   11.2320 C   0  0  0  0  0  0  0  0  0  0  0  0
   21.5550   36.7780    8.4420 C   0  0  0  0  0  0  0  0  0  0  0  0
   20.5340   36.8210    9.2690 F   0  0  0  0  0  0  0  0  0  0  0  0
   22.3800   37.7050    8.8950 F   0  0  0  0  0  0  0  0  0  0  0  0
   21.1110   37.1610    7.2580 F   0  0  0  0  0  0  0  0  0  0  0  0
  1  5  1  0  0  0  0
  1  3  1  0  0  0  0
  1  9  1  6  0  0  0
  2  7  1  0  0  0  0
  2 19  1  0  0  0  0
  2  3  2  0  0  0  0
  4  7  1  0  0  0  0
  4  5  1  0  0  0  0
  5  6  1  0  0  0  0
  7  8  1  0  0  0  0
  9 11  1  0  0  0  0
  9 10  1  0  0  0  0
 11 12  1  0  0  0  0
 11 18  1  0  0  0  0
 12 13  1  0  0  0  0
 13 14  1  0  0  0  0
 14 15  1  0  0  0  0
 14 16  1  0  0  0  0
 14 17  1  0  0  0  0
 15 18  1  0  0  0  0
 19 22  1  0  0  0  0
 19 21  1  0  0  0  0
 19 20  1  0  0  0  0
M  END
>  <MODEL>
1

>  <REMARK>
 VINA RESULT:    -7.557      0.000      0.000
 INTER + INTRA:          -9.223
 INTER:                  -8.882
 INTRA:                  -0.341
 UNBOUND:                -0.341
  3 active torsions:
  status: ('A' for Active; 'I' for Inactive)
    1  A    between atoms: C_1  and  N_7 
    2  A    between atoms: N_7  and  C_12 
    3  A    between atoms: C_9  and  C_10 

>  <COMPND>
    /home/daniil/Downloads/ml_docking_review/databases/Vina/outputs/7SED_8VD/7SED_8VD.pdbqt 

>  <AUTHOR>
    GENERATED BY OPEN BABEL 3.2.1

>  <MASTER>
        0    0    0    0    0    0    0    0   22    0   22    0

$$$$
