../../databases/Vina/outputs/6YSP_PAL/6YSP_PAL1.pdb
 OpenBabel08242616453D

  7  6  0  0  0  0  0  0  0  0999 V2000
   19.5000   28.7760  -35.8330 P   0  0  0  0  0  0  0  0  0  0  0  0
   19.2780   29.1680  -37.2780 O   0  0  0  0  0  0  0  0  0  0  0  0
   19.4240   29.9380  -34.8740 O   0  0  0  0  0  0  0  0  0  0  0  0
   18.6000   27.6340  -35.4120 O   0  0  0  0  0  0  0  0  0  0  0  0
   21.2020   28.0940  -35.7240 C   0  0  0  0  0  0  0  0  0  0  0  0
   21.6000   28.0350  -34.2740 C   0  0  0  0  0  0  0  0  0  0  0  0
   21.1820   27.2010  -33.5340 O   0  0  0  0  0  0  0  0  0  0  0  0
  1  2  2  0  0  0  0
  1  5  1  0  0  0  0
  1  4  1  0  0  0  0
  1  3  1  0  0  0  0
  5  6  1  0  0  0  0
  6  7  2  0  0  0  0
M  END
>  <MODEL>
1

>  <REMARK>
 VINA RESULT:    -6.524      0.000      0.000
 INTER + INTRA:          -7.329
 INTER:                  -7.287
 INTRA:                  -0.042
 UNBOUND:                -0.042
  2 active torsions:
  status: ('A' for Active; 'I' for Inactive)
    1  A    between atoms: P_1  and  C_5 
    2  A    between atoms: C_5  and  C_6 

>  <COMPND>
    /home/daniil/Downloads/ml_docking_review/databases/Vina/outputs/6YSP_PAL/6YSP_PAL.pdbqt 

>  <AUTHOR>
    GENERATED BY OPEN BABEL 3.2.1

>  <MASTER>
        0    0    0    0    0    0    0    0    7    0    7    0

$$$$
