../../databases/Vina/outputs/7ORW_7WA/7ORW_7WA1.pdb
 OpenBabel08242616453D

 14 15  0  0  0  0  0  0  0  0999 V2000
    6.1040  105.5750   21.4460 C   0  0  0  0  0  0  0  0  0  0  0  0
    5.4610  106.4200   20.5050 C   0  0  0  0  0  0  0  0  0  0  0  0
    6.1950  107.4780   19.9830 C   0  0  0  0  0  0  0  0  0  0  0  0
    7.5290  107.6920   20.3800 C   0  0  0  0  0  0  0  0  0  0  0  0
    8.1690  106.8700   21.2870 C   0  0  0  0  0  0  0  0  0  0  0  0
    7.4360  105.8120   21.8010 C   0  0  0  0  0  0  0  0  0  0  0  0
    7.7610  104.8230   22.7000 N   0  0  0  0  0  0  0  0  0  0  0  0
    8.6620  104.6940   23.1620 H   0  0  0  0  0  0  0  0  0  0  0  0
    6.6690  104.0600   22.8520 C   0  0  0  0  0  0  0  0  0  0  0  0
    5.6460  104.4510   22.1250 N   0  0  0  0  0  0  0  0  0  0  0  0
    4.7220  104.0230   22.0700 H   0  0  0  0  0  0  0  0  0  0  0  0
    4.1660  106.2250   20.1100 N   0  0  0  0  0  0  0  0  0  0  0  0
    3.9230  105.4150   19.5400 H   0  0  0  0  0  0  0  0  0  0  0  0
    3.4150  106.8680   20.3630 H   0  0  0  0  0  0  0  0  0  0  0  0
  1  2  2  0  0  0  0
  1  6  1  0  0  0  0
  1 10  1  0  0  0  0
  2  3  1  0  0  0  0
  2 12  1  0  0  0  0
  3  4  2  0  0  0  0
  4  5  1  0  0  0  0
  5  6  2  0  0  0  0
  6  7  1  0  0  0  0
  7  9  1  0  0  0  0
  7  8  1  0  0  0  0
  9 10  1  0  0  0  0
 10 11  1  0  0  0  0
 12 13  1  0  0  0  0
 12 14  1  0  0  0  0
M  END
>  <MODEL>
1

>  <REMARK>
 VINA RESULT:    -4.264      0.000      0.000
 INTER + INTRA:          -4.389
 INTER:                  -4.389
 INTRA:                   0.000
 UNBOUND:                 0.000
  1 active torsions:
  status: ('A' for Active; 'I' for Inactive)
    1  A    between atoms: N_2  and  C_5 

>  <COMPND>
    /home/daniil/Downloads/ml_docking_review/databases/Vina/outputs/7ORW_7WA/7ORW_7WA.pdbqt 

>  <AUTHOR>
    GENERATED BY OPEN BABEL 3.2.1

>  <MASTER>
        0    0    0    0    0    0    0    0   14    0   14    0

$$$$
