../../databases/Vina/outputs/7RUI_7QZ/7RUI_7QZ1.pdb
 OpenBabel08242612033D

 56 61  0  0  1  0  0  0  0  0999 V2000
    9.3400   10.9870    5.4040 C   0  0  0  0  0  0  0  0  0  0  0  0
   13.0140   14.0670    4.3430 C   0  0  0  0  0  0  0  0  0  0  0  0
   13.4660   14.4400    5.6240 C   0  0  0  0  0  0  0  0  0  0  0  0
   14.6270   15.1920    5.8620 C   0  0  0  0  0  0  0  0  0  0  0  0
   15.4180   15.4870    4.7840 C   0  0  0  0  0  0  0  0  0  0  0  0
   15.0230   15.0580    3.4980 C   0  0  0  0  0  0  0  0  0  0  0  0
   13.8170   14.3520    3.2790 C   0  0  0  0  0  0  0  0  0  0  0  0
   16.9350   16.2440    3.2780 C   0  0  0  0  0  0  0  0  0  0  0  0
   16.6270   16.2180    4.6270 C   0  0  0  0  0  0  0  0  0  0  0  0
    9.0930   12.5140    3.5300 C   0  0  0  0  0  0  0  0  0  0  0  0
    9.7000   13.5560    2.7020 C   0  0  0  0  0  0  0  0  0  0  0  0
   10.9470   13.9830    3.0190 C   0  0  0  0  0  0  0  0  0  0  0  0
   11.7100   13.4890    4.1230 C   0  0  0  0  0  0  0  0  0  0  0  0
   11.1310   12.5130    4.8650 C   0  0  0  0  0  0  0  0  0  0  0  0
    9.8870   12.0700    4.5700 N   0  0  0  0  0  0  0  0  0  0  0  0
   16.0060   15.5040    2.5800 N   0  0  0  0  0  0  0  0  0  0  0  0
    7.9560   12.0650    3.3130 O   0  0  0  0  0  0  0  0  0  0  0  0
   15.0440   15.6430    7.1190 N   0  0  0  0  0  0  0  0  0  0  0  0
   16.0370   15.8260    7.2560 H   0  0  0  0  0  0  0  0  0  0  0  0
   14.0300   15.8940    8.3880 S   0  0  0  0  0  0  0  0  0  0  0  0
   12.7950   16.3080    7.9130 O   0  0  0  0  0  0  0  0  0  0  0  0
   14.7420   16.7260    9.3090 O   0  0  0  0  0  0  0  0  0  0  0  0
   13.7110   14.3050    9.1800 C   0  0  0  0  0  0  0  0  0  0  0  0
   14.9370   13.6030    9.4980 C   0  0  0  0  0  0  0  0  0  0  0  0
   15.8680   14.2150   10.2930 F   0  0  0  0  0  0  0  0  0  0  0  0
   15.7020   13.2680    8.3530 F   0  0  0  0  0  0  0  0  0  0  0  0
   14.7670   12.4220   10.0370 F   0  0  0  0  0  0  0  0  0  0  0  0
    8.9370   14.0260    1.6760 N   0  0  0  0  0  0  0  0  0  0  0  0
    9.3250   14.7600    0.5740 C   0  0  0  0  0  0  0  0  0  0  0  0
   10.4980   15.1080    0.4820 O   0  0  0  0  0  0  0  0  0  0  0  0
    8.3230   15.0330   -0.3390 N   0  0  0  0  0  0  0  0  0  0  0  0
    7.3790   14.7000   -0.1470 H   0  0  0  0  0  0  0  0  0  0  0  0
    7.9430   13.8050    1.7300 H   0  0  0  0  0  0  0  0  0  0  0  0
    8.5610   15.7540   -1.5260 C   0  0  0  0  0  0  0  0  0  0  0  0
    8.5810   17.0820   -1.7100 C   0  0  0  0  0  0  0  0  0  0  0  0
    8.8380   17.6920   -2.9500 C   0  0  0  0  0  0  0  0  0  0  0  0
    9.1320   16.9110   -4.0210 C   0  0  0  0  0  0  0  0  0  0  0  0
    9.1500   15.5530   -3.8670 C   0  0  0  0  0  0  0  0  0  0  0  0
    8.8590   15.0180   -2.5960 C   0  0  0  0  0  0  0  0  0  0  0  0
    8.8050   13.7190   -2.4160 F   0  0  0  0  0  0  0  0  0  0  0  0
   15.9010   15.4240    1.1190 C   0  0  2  0  0  0  0  0  0  0  0  0
   17.3510   15.6400    0.5110 C   0  0  0  0  0  0  0  0  0  0  0  0
   14.9450   16.5600    0.6090 C   0  0  2  0  0  0  0  0  0  0  0  0
   13.7890   16.9710    1.1920 C   0  0  0  0  0  0  0  0  0  0  0  0
   12.9810   18.0220    0.6920 C   0  0  0  0  0  0  0  0  0  0  0  0
   13.3230   18.6320   -0.5020 C   0  0  0  0  0  0  0  0  0  0  0  0
   14.4890   18.1480   -1.1130 C   0  0  0  0  0  0  0  0  0  0  0  0
   15.2850   17.1570   -0.6160 N   0  0  0  0  0  0  0  0  0  0  0  0
   16.1140   16.8540   -1.1280 H   0  0  0  0  0  0  0  0  0  0  0  0
   15.4240   14.0910    0.6710 C   0  0  1  0  0  0  0  0  0  0  0  0
   16.1520   12.9890    0.9680 C   0  0  0  0  0  0  0  0  0  0  0  0
   15.6640   11.7980    0.5900 C   0  0  0  0  0  0  0  0  0  0  0  0
   14.5110   11.6310   -0.1120 C   0  0  0  0  0  0  0  0  0  0  0  0
   13.7700   12.7580   -0.4090 C   0  0  0  0  0  0  0  0  0  0  0  0
   14.2110   13.9870    0.0080 N   0  0  0  0  0  0  0  0  0  0  0  0
   13.6500   14.8200   -0.1680 H   0  0  0  0  0  0  0  0  0  0  0  0
  1 15  1  0  0  0  0
  2  7  2  0  0  0  0
  2 13  1  0  0  0  0
  2  3  1  0  0  0  0
  3  4  2  0  0  0  0
  4  5  1  0  0  0  0
  4 18  1  0  0  0  0
  5  6  2  0  0  0  0
  5  9  1  0  0  0  0
  6 16  1  0  0  0  0
  6  7  1  0  0  0  0
  8 16  1  0  0  0  0
  8  9  2  0  0  0  0
 10 11  1  0  0  0  0
 10 17  2  0  0  0  0
 10 15  1  0  0  0  0
 11 28  1  0  0  0  0
 11 12  2  0  0  0  0
 12 13  1  0  0  0  0
 13 14  2  0  0  0  0
 14 15  1  0  0  0  0
 16 41  1  0  0  0  0
 18 19  1  0  0  0  0
 18 20  1  0  0  0  0
 20 21  2  0  0  0  0
 20 23  1  0  0  0  0
 20 22  2  0  0  0  0
 23 24  1  0  0  0  0
 24 26  1  0  0  0  0
 24 27  1  0  0  0  0
 24 25  1  0  0  0  0
 28 29  1  0  0  0  0
 28 33  1  0  0  0  0
 29 31  1  0  0  0  0
 29 30  2  0  0  0  0
 31 34  1  0  0  0  0
 31 32  1  0  0  0  0
 34 39  2  0  0  0  0
 34 35  1  0  0  0  0
 35 36  2  0  0  0  0
 36 37  1  0  0  0  0
 37 38  2  0  0  0  0
 38 39  1  0  0  0  0
 39 40  1  0  0  0  0
 41 42  1  6  0  0  0
 43 41  1  6  0  0  0
 43 48  1  0  0  0  0
 43 44  1  0  0  0  0
 44 45  2  0  0  0  0
 45 46  1  0  0  0  0
 46 47  2  0  0  0  0
 47 48  1  0  0  0  0
 48 49  1  0  0  0  0
 50 41  1  1  0  0  0
 50 55  1  0  0  0  0
 50 51  1  0  0  0  0
 51 52  2  0  0  0  0
 52 53  1  0  0  0  0
 53 54  2  0  0  0  0
 54 55  1  0  0  0  0
 55 56  1  0  0  0  0
M  END
>  <MODEL>
1

>  <REMARK>
 VINA RESULT:   -10.891      0.000      0.000
 INTER + INTRA:         -17.827
 INTER:                 -16.621
 INTRA:                  -1.206
 UNBOUND:                -1.206
  9 active torsions:
  status: ('A' for Active; 'I' for Inactive)
    1  A    between atoms: C_4  and  N_33 
    2  A    between atoms: C_10  and  N_20 
    3  A    between atoms: C_10  and  C_26 
    4  A    between atoms: C_10  and  C_12 
    5  A    between atoms: C_15  and  N_43 
    6  A    between atoms: N_33  and  S_35 
    7  A    between atoms: S_35  and  C_36 
    8  A    between atoms: C_36  and  C_37 
       I    between atoms: N_43  and  C_45 
       I    between atoms: C_45  and  N_46 
    9  A    between atoms: N_46  and  C_48 

>  <COMPND>
    /home/daniil/Downloads/ml_docking_review/databases/Vina/outputs/7RUI_7QZ/7RUI_7QZ.pdbqt 

>  <AUTHOR>
    GENERATED BY OPEN BABEL 3.2.1

>  <MASTER>
        0    0    0    0    0    0    0    0   56    0   56    0

$$$$
