../../databases/Vina/outputs/7KZ9_XN7/7KZ9_XN71.pdb
 OpenBabel08242616453D

 16 15  0  0  0  0  0  0  0  0999 V2000
  -54.8540   48.4350  -19.0080 C   0  0  0  0  0  0  0  0  0  0  0  0
  -55.2480   47.6940  -17.7440 C   0  0  0  0  0  0  0  0  0  0  0  0
  -56.4970   48.0500  -17.1120 N   0  0  0  0  0  0  0  0  0  0  0  0
  -57.0820   48.7730  -17.5310 H   0  0  0  0  0  0  0  0  0  0  0  0
  -54.5520   46.8270  -17.3090 O   0  0  0  0  0  0  0  0  0  0  0  0
  -56.9320   47.3960  -15.8930 C   0  0  0  0  0  0  0  0  0  0  0  0
  -58.4360   47.1730  -15.9360 C   0  0  0  0  0  0  0  0  0  0  0  0
  -58.6870   45.8370  -16.2670 O   0  0  0  0  0  0  0  0  0  0  0  0
  -58.1440   45.5960  -17.0080 H   0  0  0  0  0  0  0  0  0  0  0  0
  -55.9550   48.4330  -19.9470 N   0  0  0  0  0  4  0  0  0  0  0  0
  -56.4410   47.5370  -19.9810 H   0  0  0  0  0  0  0  0  0  0  0  0
  -56.7400   49.0040  -19.6340 H   0  0  0  0  0  0  0  0  0  0  0  0
  -55.4490   48.8400  -21.2370 C   0  0  0  0  0  0  0  0  0  0  0  0
  -53.9610   49.1170  -21.0630 C   0  0  0  0  0  0  0  0  0  0  0  0
  -53.5130   49.7770  -22.2220 O   0  0  0  0  0  0  0  0  0  0  0  0
  -53.2320   50.6480  -21.9660 H   0  0  0  0  0  0  0  0  0  0  0  0
  1 10  1  0  0  0  0
  1  2  1  0  0  0  0
  2  5  2  0  0  0  0
  2  3  1  0  0  0  0
  3  4  1  0  0  0  0
  3  6  1  0  0  0  0
  6  7  1  0  0  0  0
  7  8  1  0  0  0  0
  8  9  1  0  0  0  0
 10 13  1  0  0  0  0
 10 11  1  0  0  0  0
 10 12  1  0  0  0  0
 13 14  1  0  0  0  0
 14 15  1  0  0  0  0
 15 16  1  0  0  0  0
M  END
>  <MODEL>
1

>  <REMARK>
 VINA RESULT:    -5.990      0.000      0.000
 INTER + INTRA:          -8.621
 INTER:                  -8.441
 INTRA:                  -0.180
 UNBOUND:                -0.180
  8 active torsions:
  status: ('A' for Active; 'I' for Inactive)
    1  A    between atoms: C_1  and  C_2 
    2  A    between atoms: C_1  and  O_12 
    3  A    between atoms: C_2  and  N_7 
    4  A    between atoms: C_3  and  C_4 
    5  A    between atoms: C_3  and  N_7 
       I    between atoms: C_4  and  N_10 
    6  A    between atoms: C_5  and  N_10 
    7  A    between atoms: C_5  and  C_6 
    8  A    between atoms: C_6  and  O_15 

>  <COMPND>
    /home/daniil/Downloads/ml_docking_review/databases/Vina/outputs/7KZ9_XN7/7KZ9_XN7.pdbqt 

>  <AUTHOR>
    GENERATED BY OPEN BABEL 3.2.1

>  <MASTER>
        0    0    0    0    0    0    0    0   16    0   16    0

$$$$
