../../databases/Vina/outputs/7M3H_YPV/7M3H_YPV1.pdb
 OpenBabel08242616453D

 26 27  0  0  0  0  0  0  0  0999 V2000
   -0.9100    7.3670   19.2240 O   0  0  0  0  0  0  0  0  0  0  0  0
   -1.4890    5.0780   18.6230 O   0  0  0  0  0  0  0  0  0  0  0  0
   -0.8980    6.3520   18.2190 S   0  0  0  0  0  0  0  0  0  0  0  0
   -1.6100    6.9390   16.7940 C   0  0  0  0  0  0  0  0  0  0  0  0
   -2.3020    8.1390   16.6670 C   0  0  0  0  0  0  0  0  0  0  0  0
   -2.8640    8.6000   15.4930 C   0  0  0  0  0  0  0  0  0  0  0  0
   -2.6940    7.8140   14.3970 C   0  0  0  0  0  0  0  0  0  0  0  0
   -2.0210    6.6360   14.3940 C   0  0  0  0  0  0  0  0  0  0  0  0
   -1.4830    6.2240   15.5930 C   0  0  0  0  0  0  0  0  0  0  0  0
   -3.5890    9.9320   15.3890 C   0  0  0  0  0  0  0  0  0  0  0  0
   -4.4010   10.2280   16.3030 O   0  0  0  0  0  0  0  0  0  0  0  0
   -3.4050   10.6710   14.3520 O   0  0  0  0  0  0  0  0  0  0  0  0
   -3.2370    8.2400   13.1790 O   0  0  0  0  0  0  0  0  0  0  0  0
   -4.1090    7.9440   12.9420 H   0  0  0  0  0  0  0  0  0  0  0  0
    0.6150    6.0190   17.8640 N   0  0  0  0  0  0  0  0  0  0  0  0
    0.9230    5.0760   18.0960 H   0  0  0  0  0  0  0  0  0  0  0  0
    1.5730    6.8350   17.2830 C   0  0  0  0  0  0  0  0  0  0  0  0
    2.3990    6.3870   16.2810 C   0  0  0  0  0  0  0  0  0  0  0  0
    3.4070    7.1840   15.7440 C   0  0  0  0  0  0  0  0  0  0  0  0
    3.6180    8.4770   16.1600 C   0  0  0  0  0  0  0  0  0  0  0  0
    2.7870    8.9500   17.1790 C   0  0  0  0  0  0  0  0  0  0  0  0
    1.7730    8.1340   17.7130 C   0  0  0  0  0  0  0  0  0  0  0  0
    4.7220    9.3000   15.5800 C   0  0  0  0  0  0  0  0  0  0  0  0
    5.8630    9.5600   16.5490 C   0  0  0  0  0  0  0  0  0  0  0  0
    6.6820    8.3350   17.0500 C   0  0  0  0  0  0  0  0  0  0  0  0
    6.5600    8.0750   18.6210 C   0  0  0  0  0  0  0  0  0  0  0  0
  1  3  2  0  0  0  0
  2  3  2  0  0  0  0
  3  4  1  0  0  0  0
  3 15  1  0  0  0  0
  4  9  2  0  0  0  0
  4  5  1  0  0  0  0
  5  6  2  0  0  0  0
  6  7  1  0  0  0  0
  6 10  1  0  0  0  0
  7 13  1  0  0  0  0
  7  8  2  0  0  0  0
  8  9  1  0  0  0  0
 10 12  2  0  0  0  0
 10 11  1  0  0  0  0
 13 14  1  0  0  0  0
 15 17  1  0  0  0  0
 15 16  1  0  0  0  0
 17 18  2  0  0  0  0
 17 22  1  0  0  0  0
 18 19  1  0  0  0  0
 19 20  2  0  0  0  0
 20 23  1  0  0  0  0
 20 21  1  0  0  0  0
 21 22  2  0  0  0  0
 23 24  1  0  0  0  0
 24 25  1  0  0  0  0
 25 26  1  0  0  0  0
M  END
>  <MODEL>
1

>  <REMARK>
 VINA RESULT:    -9.311      0.000      0.000
 INTER + INTRA:         -14.613
 INTER:                 -13.393
 INTRA:                  -1.219
 UNBOUND:                -1.219
  8 active torsions:
  status: ('A' for Active; 'I' for Inactive)
    1  A    between atoms: C_1  and  N_18 
    2  A    between atoms: C_5  and  C_6 
    3  A    between atoms: C_7  and  O_21 
    4  A    between atoms: C_10  and  S_26 
    5  A    between atoms: C_11  and  C_12 
    6  A    between atoms: C_12  and  C_13 
    7  A    between atoms: C_13  and  C_14 
    8  A    between atoms: N_18  and  S_26 

>  <COMPND>
    /home/daniil/Downloads/ml_docking_review/databases/Vina/outputs/7M3H_YPV/7M3H_YPV.pdbqt 

>  <AUTHOR>
    GENERATED BY OPEN BABEL 3.2.1

>  <MASTER>
        0    0    0    0    0    0    0    0   26    0   26    0

$$$$
