../../databases/Vina/outputs/7D9L_GSF/7D9L_GSF1.pdb
 OpenBabel08242612033D

 21 20  0  0  1  0  0  0  0  0999 V2000
   19.3090   20.4360   19.4000 C   0  0  0  0  0  0  0  0  0  0  0  0
   19.0140   19.2000   19.4600 O   0  0  0  0  0  0  0  0  0  0  0  0
   18.5300   21.3010   19.9900 N   0  0  0  0  0  0  0  0  0  0  0  0
   18.8090   22.2790   20.0610 H   0  0  0  0  0  0  0  0  0  0  0  0
   20.3950   21.0970   18.5850 C   0  0  0  0  0  0  0  0  0  0  0  0
   19.8270   21.3840   17.3020 C   0  0  0  0  0  0  0  0  0  0  0  0
   20.0200   22.8540   16.9110 C   0  0  1  0  0  0  0  0  0  0  0  0
   18.6680   23.5200   17.0510 C   0  0  0  0  0  0  0  0  0  0  0  0
   18.0540   23.9080   16.0150 O   0  0  0  0  0  0  0  0  0  0  0  0
   18.1800   23.7290   18.1790 O   0  0  0  0  0  0  0  0  0  0  0  0
   21.0050   23.3820   17.9050 N   0  0  0  0  0  4  0  0  0  0  0  0
   20.7340   24.2690   18.3300 H   0  0  0  0  0  0  0  0  0  0  0  0
   21.0460   22.8480   18.7730 H   0  0  0  0  0  0  0  0  0  0  0  0
   21.8880   23.4180   17.3970 H   0  0  0  0  0  0  0  0  0  0  0  0
   17.2880   20.8680   20.5340 C   0  0  1  0  0  0  0  0  0  0  0  0
   17.1400   21.3970   21.9520 C   0  0  0  0  0  0  0  0  0  0  0  0
   18.0370   20.4370   23.1700 S   0  0  0  0  0  0  0  0  0  0  0  0
   17.9420   21.2220   24.3890 O   0  0  0  0  0  0  0  0  0  0  0  0
   19.5250   20.5220   22.7000 O   0  0  0  0  0  0  0  0  0  0  0  0
   16.1150   21.3400   19.7290 C   0  0  0  0  0  0  0  0  0  0  0  0
   15.2650   20.5550   19.4420 O   0  0  0  0  0  0  0  0  0  0  0  0
  1  5  1  0  0  0  0
  1  2  2  0  0  0  0
  1  3  1  0  0  0  0
  3  4  1  0  0  0  0
  3 15  1  0  0  0  0
  5  6  1  0  0  0  0
  7  6  1  1  0  0  0
  7  8  1  0  0  0  0
  7 11  1  0  0  0  0
  8  9  2  0  0  0  0
  8 10  1  0  0  0  0
 11 14  1  0  0  0  0
 11 12  1  0  0  0  0
 11 13  1  0  0  0  0
 15 20  1  6  0  0  0
 15 16  1  0  0  0  0
 16 17  1  0  0  0  0
 17 19  1  0  0  0  0
 17 18  1  0  0  0  0
 20 21  2  0  0  0  0
M  END
>  <MODEL>
1

>  <REMARK>
 VINA RESULT:    -5.218      0.000      0.000
 INTER + INTRA:          -8.951
 INTER:                  -7.810
 INTRA:                  -1.140
 UNBOUND:                -1.140
  9 active torsions:
  status: ('A' for Active; 'I' for Inactive)
    1  A    between atoms: C_1  and  C_2 
    2  A    between atoms: C_1  and  C_12 
    3  A    between atoms: C_2  and  C_3 
       I    between atoms: C_3  and  N_13 
    4  A    between atoms: C_5  and  C_12 
    5  A    between atoms: N_8  and  C_12 
    6  A    between atoms: N_13  and  C_15 
    7  A    between atoms: C_15  and  C_16 
    8  A    between atoms: C_15  and  C_20 
    9  A    between atoms: C_16  and  S_17 

>  <COMPND>
    /home/daniil/Downloads/ml_docking_review/databases/Vina/outputs/7D9L_GSF/7D9L_GSF.pdbqt 

>  <AUTHOR>
    GENERATED BY OPEN BABEL 3.2.1

>  <MASTER>
        0    0    0    0    0    0    0    0   21    0   21    0

$$$$
